Version 4
SHEET 1 880 868
WIRE -672 -224 -736 -224
WIRE -592 -224 -624 -224
WIRE -736 -208 -736 -224
WIRE -736 -112 -736 -128
WIRE -672 -64 -736 -64
WIRE -592 -64 -624 -64
WIRE -736 -48 -736 -64
WIRE -736 48 -736 32
WIRE -672 96 -736 96
WIRE -592 96 -624 96
WIRE -736 112 -736 96
WIRE -736 208 -736 192
WIRE -640 256 -736 256
WIRE -736 272 -736 256
WIRE -736 368 -736 352
FLAG -736 368 0
FLAG -640 256 $G_VDD
FLAG -736 -112 0
FLAG -592 -224 A
FLAG -736 48 0
FLAG -592 -64 B
FLAG -736 208 0
FLAG -592 96 C
SYMBOL voltage -736 -224 R0
WINDOW 3 31 95 Left 2
WINDOW 123 0 0 Left 2
WINDOW 39 0 0 Left 2
SYMATTR Value PULSE(0 3.3 5n 2n 2n 20n 40n)
SYMATTR InstName VA
SYMBOL voltage -736 256 R0
WINDOW 123 0 0 Left 2
WINDOW 39 0 0 Left 2
SYMATTR InstName VDD
SYMATTR Value 3.3
SYMBOL voltage -736 -64 R0
WINDOW 3 31 95 Left 2
WINDOW 123 0 0 Left 2
WINDOW 39 0 0 Left 2
SYMATTR Value PULSE(0 3.3 5n 2n 2n 50n 100n)
SYMATTR InstName VB
SYMBOL voltage -736 96 R0
WINDOW 3 31 95 Left 2
WINDOW 123 0 0 Left 2
WINDOW 39 0 0 Left 2
SYMATTR Value PULSE(0 3.3 5n 2n 2n 100n 200n)
SYMATTR InstName VC
SYMBOL buf -656 -224 R0
SYMATTR InstName X3
SYMBOL buf -656 -64 R0
SYMATTR InstName X1
SYMBOL buf -656 96 R0
SYMATTR InstName X2
TEXT -440 360 Left 2 !.tran 200ns
TEXT -440 384 Left 2 !.lib cmos.lib
TEXT -416 -272 Left 2 ;Y = A.B.C + (A+B+C).D
