Version 4
SHEET 1 880 868
WIRE -560 -240 -624 -240
WIRE -480 -240 -512 -240
WIRE -160 -240 -304 -240
WIRE -32 -240 -160 -240
WIRE 48 -240 -32 -240
WIRE -624 -224 -624 -240
WIRE -304 -208 -304 -240
WIRE -288 -208 -304 -208
WIRE -160 -208 -160 -240
WIRE -144 -208 -160 -208
WIRE -32 -208 -32 -240
WIRE -16 -208 -32 -208
WIRE -368 -160 -384 -160
WIRE -288 -160 -288 -208
WIRE -288 -160 -304 -160
WIRE -224 -160 -240 -160
WIRE -144 -160 -144 -208
WIRE -144 -160 -160 -160
WIRE -96 -160 -112 -160
WIRE -16 -160 -16 -208
WIRE -16 -160 -32 -160
WIRE -624 -128 -624 -144
WIRE -304 -96 -304 -112
WIRE -160 -96 -160 -112
WIRE -160 -96 -304 -96
WIRE -32 -96 -32 -112
WIRE -32 -96 -160 -96
WIRE -560 -80 -624 -80
WIRE -480 -80 -512 -80
WIRE -624 -64 -624 -80
WIRE -160 -48 -160 -96
WIRE -32 -48 -160 -48
WIRE -160 -32 -160 -48
WIRE -32 -32 -32 -48
WIRE -224 16 -240 16
WIRE -128 16 -160 16
WIRE -624 32 -624 16
WIRE -32 64 -32 32
WIRE -560 80 -624 80
WIRE -480 80 -512 80
WIRE -160 80 -160 64
WIRE -624 96 -624 80
WIRE -224 128 -240 128
WIRE -128 128 -128 16
WIRE -128 128 -160 128
WIRE -624 192 -624 176
WIRE -160 208 -160 176
WIRE -528 240 -624 240
WIRE -624 256 -624 240
WIRE -224 256 -240 256
WIRE -128 256 -128 128
WIRE -128 256 -160 256
WIRE -160 320 -160 304
WIRE -128 320 -128 256
WIRE -128 320 -160 320
WIRE -624 352 -624 336
WIRE -160 352 -160 320
FLAG -160 352 0
FLAG 48 -240 $G_VDD
FLAG -624 352 0
FLAG -528 240 $G_VDD
FLAG -240 16 C
FLAG -384 -160 A
FLAG -240 -160 B
FLAG -240 128 B
FLAG -112 -160 C
FLAG -240 256 A
FLAG -624 -128 0
FLAG -480 -240 A
FLAG -624 32 0
FLAG -480 -80 B
FLAG -624 192 0
FLAG -480 80 C
FLAG -32 64 0
FLAG -32 -48 Y
SYMBOL voltage -624 -240 R0
WINDOW 3 5 100 Left 2
WINDOW 123 0 0 Left 2
WINDOW 39 0 0 Left 2
SYMATTR Value PULSE({Vdd} 0 5n 2n 2n 20n 100n)
SYMATTR InstName VA
SYMBOL voltage -624 240 R0
WINDOW 123 0 0 Left 2
WINDOW 39 0 0 Left 2
SYMATTR InstName VDD
SYMATTR Value {Vdd}
SYMBOL voltage -624 -80 R0
WINDOW 3 31 95 Left 2
WINDOW 123 0 0 Left 2
WINDOW 39 0 0 Left 2
SYMATTR Value {Vdd}
SYMATTR InstName VB
SYMBOL nmos -208 -32 R0
SYMATTR InstName M1
SYMATTR Value2 L=0.6U W=5.4U AS=2.7P AD=5.333P PS=6.9U PD=8.85U
SYMATTR Value NMOS
SYMBOL nmos -208 80 R0
SYMATTR InstName M3
SYMATTR Value2 L=0.6U W=3.6U AS=5.333P AD=5.04P PS=8.85U PD=9.3U
SYMATTR Value NMOS
SYMBOL nmos -208 208 R0
SYMATTR InstName M4
SYMATTR Value2 L=0.6U W=5.4U AS=11.16P AD=2.835P PS=20.1U PD=7.2U
SYMATTR Value NMOS
SYMBOL pmos -208 -208 R0
SYMATTR InstName M5
SYMATTR Value2 L=0.6U W=3.6U AS=5.333P AD=5.04P PS=8.85U PD=9.3U
SYMATTR SpiceModel ""
SYMATTR Value P
SYMBOL pmos -352 -208 R0
SYMATTR InstName M6
SYMATTR Value2 L=0.6U W=3.6U AS=5.04P AD=5.333P PS=9.3U PD=8.85U
SYMATTR SpiceModel ""
SYMATTR Value P
SYMBOL pmos -80 -208 R0
SYMATTR InstName M8
SYMATTR Value2 L=0.6U W=3.6U AS=5.04P AD=5.333P PS=9.3U PD=8.85U
SYMATTR SpiceModel ""
SYMATTR Value P
SYMBOL voltage -624 80 R0
WINDOW 3 31 95 Left 2
WINDOW 123 0 0 Left 2
WINDOW 39 0 0 Left 2
SYMATTR Value PULSE({Vdd} 0 50n 2n 2n 20n 100n)
SYMATTR InstName VC
SYMBOL buf -544 -240 R0
SYMATTR InstName X3
SYMBOL buf -544 -80 R0
SYMATTR InstName X1
SYMBOL buf -544 80 R0
SYMATTR InstName X2
SYMBOL cap -48 -32 R0
SYMATTR InstName CL
SYMATTR Value 100fF
TEXT -344 328 Left 2 !.tran 100ns
TEXT -344 352 Left 2 !.lib cmos.lib
TEXT -264 -24 Left 2 ;18/2
TEXT -264 88 Left 2 ;18/2
TEXT -256 224 Left 2 ;18/2
TEXT -248 -200 Left 2 ;12/2
TEXT -120 -200 Left 2 ;12/2
TEXT -392 -200 Left 2 ;12/2
TEXT -584 440 Left 2 !.measure tPLH_a TRIG v(a) VAL={Vdd/2} FALL=1 TARG v(y) VAL={Vdd/2} RISE=1\n.measure tPHL_a TRIG v(a) VAL={Vdd/2} RISE=1 TARG v(y) VAL={Vdd/2} FALL=1\n.measure tPLH_c TRIG v(c) VAL={Vdd/2} FALL=1 TARG v(y) VAL={Vdd/2} RISE=2\n.measure tPHL_c TRIG v(c) VAL={Vdd/2} RISE=1 TARG v(y) VAL={Vdd/2} FALL=2
TEXT -576 408 Left 2 !.param Vdd=3.3V
