Version 4
SHEET 1 1292 680
WIRE -896 -304 -976 -304
WIRE -1536 -288 -1568 -288
WIRE -1440 -288 -1472 -288
WIRE -1360 -288 -1392 -288
WIRE -1168 -288 -1200 -288
WIRE -1056 -288 -1104 -288
WIRE -928 -272 -976 -272
WIRE -1744 -128 -1808 -128
WIRE -1680 -128 -1696 -128
WIRE -1568 -128 -1568 -288
WIRE -1568 -128 -1616 -128
WIRE -1472 -128 -1568 -128
WIRE -1360 -112 -1360 -288
WIRE -1360 -112 -1392 -112
WIRE -1312 -112 -1360 -112
WIRE -1200 -112 -1200 -288
WIRE -1200 -112 -1248 -112
WIRE -1152 -112 -1200 -112
WIRE -896 -112 -896 -304
WIRE -896 -112 -1104 -112
WIRE -848 -112 -896 -112
WIRE -752 -112 -800 -112
WIRE -1472 -96 -1504 -96
WIRE -1504 -32 -1504 -96
WIRE -1504 -32 -1808 -32
WIRE -928 -32 -928 -272
WIRE -928 -32 -1504 -32
WIRE -1744 32 -1792 32
WIRE -1680 32 -1696 32
WIRE -1584 32 -1680 32
WIRE -1680 96 -1680 32
WIRE -1664 96 -1680 96
WIRE -1584 96 -1616 96
FLAG -1504 -320 cb
FLAG -1648 -96 cb
FLAG -1648 -160 c
FLAG -1792 32 clk
IOPIN -1792 32 In
FLAG -1808 -128 D
IOPIN -1808 -128 In
FLAG -1584 32 c
FLAG -1584 96 cb
FLAG -1504 -256 c
FLAG -1136 -320 c
FLAG -1280 -80 c
FLAG -1280 -144 cb
FLAG -1136 -256 cb
FLAG -752 -112 q
IOPIN -752 -112 Out
FLAG -1808 -32 R
IOPIN -1808 -32 In
SYMBOL tg -1488 -304 R180
SYMATTR InstName X4
SYMBOL inverter -1408 -288 R180
SYMATTR InstName X5
SYMBOL inverter -1728 -128 R0
SYMATTR InstName X6
SYMBOL tg -1632 -144 R180
SYMATTR InstName X7
SYMBOL inverter -1728 32 R0
SYMATTR InstName X1
SYMBOL inverter -1648 96 R0
SYMATTR InstName X2
SYMBOL inverter -1136 -112 R0
SYMATTR InstName X8
SYMBOL tg -1120 -304 R180
SYMATTR InstName X9
SYMBOL tg -1264 -128 R180
SYMATTR InstName X12
SYMBOL inverter -832 -112 R0
SYMATTR InstName X11
SYMBOL nor2 -1440 -112 R0
SYMATTR InstName X3
SYMBOL nor2 -1008 -288 R180
SYMATTR InstName X10
TEXT -1528 -424 Left 2 ;Master-slave, positive edge-trigered flip-flop
