Version 4
SHEET 1 1112 1464
WIRE -128 0 -400 0
WIRE -48 0 -128 0
WIRE 192 16 96 16
WIRE -128 32 -320 32
WIRE -48 32 -128 32
WIRE 192 48 96 48
WIRE -128 64 -240 64
WIRE -48 64 -128 64
WIRE -400 208 -400 0
WIRE -320 208 -320 32
WIRE -240 208 -240 64
WIRE 272 208 272 176
FLAG 272 176 $G_VDD
FLAG 272 288 0
FLAG -320 288 0
FLAG 192 16 S
FLAG 192 48 Cout
FLAG -128 0 A
FLAG -128 32 B
FLAG -128 64 Cin
FLAG 128 288 0
FLAG 176 288 0
FLAG 128 224 S
FLAG 176 224 Cout
FLAG -240 288 0
FLAG -400 288 0
SYMBOL voltage 272 192 R0
WINDOW 123 0 0 Left 2
WINDOW 39 0 0 Left 2
SYMATTR InstName V5
SYMATTR Value 3
SYMBOL fa 16 32 R0
SYMATTR InstName X1
SYMBOL voltage -320 192 R0
WINDOW 123 0 0 Left 2
WINDOW 39 0 0 Left 2
SYMATTR InstName VB
SYMATTR Value 3
SYMBOL cap 160 224 R0
SYMATTR InstName C1
SYMATTR Value 20f
SYMBOL cap 112 224 R0
SYMATTR InstName C2
SYMATTR Value 20f
SYMBOL voltage -240 192 R0
WINDOW 123 0 0 Left 2
WINDOW 39 0 0 Left 2
SYMATTR InstName VCin
SYMATTR Value 0
SYMBOL voltage -400 192 R0
WINDOW 123 0 0 Left 2
WINDOW 39 0 0 Left 2
SYMATTR InstName VA
SYMATTR Value 0
TEXT -120 168 Left 2 !.lib cmos.lib
TEXT -120 144 Left 2 !.op
TEXT -120 120 Left 2 !.print v(a) v(b) v(cin)  v(s) v(cout)
