Version 4
SHEET 1 1112 1464
WIRE -48 0 -192 0
WIRE 192 16 96 16
WIRE -48 32 -192 32
WIRE 192 48 96 48
WIRE -416 208 -416 176
WIRE -320 208 -320 176
WIRE 272 208 272 176
WIRE -416 336 -416 288
WIRE -320 336 -320 288
WIRE 272 336 272 288
FLAG 272 176 $G_VDD
FLAG 272 336 0
FLAG -320 176 B
FLAG -320 336 0
FLAG -416 176 A
FLAG -416 336 0
FLAG 192 16 S
FLAG 192 48 Cout
FLAG -192 32 B
FLAG -192 0 A
SYMBOL voltage 272 192 R0
WINDOW 123 0 0 Left 2
WINDOW 39 0 0 Left 2
SYMATTR InstName V5
SYMATTR Value 3
SYMBOL voltage -416 192 R0
WINDOW 123 0 0 Left 2
WINDOW 39 0 0 Left 2
SYMATTR InstName VA
SYMATTR Value 3
SYMBOL ha 16 32 R0
SYMATTR InstName X1
SYMBOL voltage -320 192 R0
WINDOW 123 0 0 Left 2
WINDOW 39 0 0 Left 2
SYMATTR InstName VB
SYMATTR Value 3
TEXT 40 328 Left 2 !.lib cmos.lib
TEXT 40 304 Left 2 !.tran 25n
