Version 4
SHEET 1 880 868
WIRE -128 -240 -160 -240
WIRE 16 -240 -128 -240
WIRE 48 -240 16 -240
WIRE 96 -240 48 -240
WIRE -672 -224 -736 -224
WIRE -592 -224 -624 -224
WIRE -736 -208 -736 -224
WIRE -160 -208 -160 -240
WIRE 16 -208 16 -240
WIRE -224 -160 -240 -160
WIRE -128 -160 -128 -240
WIRE -128 -160 -160 -160
WIRE -48 -160 -64 -160
WIRE 48 -160 48 -240
WIRE 48 -160 16 -160
WIRE -736 -112 -736 -128
WIRE -160 -96 -160 -112
WIRE 16 -96 16 -112
WIRE 16 -96 -160 -96
WIRE -160 -80 -160 -96
WIRE -672 -64 -736 -64
WIRE -592 -64 -624 -64
WIRE -736 -48 -736 -64
WIRE -224 -32 -240 -32
WIRE -128 -32 -128 -160
WIRE -128 -32 -160 -32
WIRE -736 48 -736 32
WIRE -160 48 -160 16
WIRE 16 48 -160 48
WIRE 80 48 16 48
WIRE -160 80 -160 48
WIRE 16 80 16 48
WIRE -672 96 -736 96
WIRE -592 96 -624 96
WIRE -736 112 -736 96
WIRE -224 128 -240 128
WIRE -128 128 -160 128
WIRE -48 128 -64 128
WIRE 48 128 16 128
WIRE -736 208 -736 192
WIRE 16 208 16 176
WIRE -640 256 -736 256
WIRE -48 256 -64 256
WIRE 48 256 48 128
WIRE 48 256 16 256
WIRE -736 272 -736 256
WIRE -160 336 -160 176
WIRE -128 336 -128 128
WIRE -128 336 -160 336
WIRE -48 336 -128 336
WIRE 16 336 16 304
WIRE 16 336 -48 336
WIRE 48 336 48 256
WIRE 48 336 16 336
WIRE -736 368 -736 352
WIRE -48 368 -48 336
FLAG 80 48 X
FLAG -48 368 0
FLAG 96 -240 $G_VDD
FLAG -736 368 0
FLAG -640 256 $G_VDD
FLAG -240 128 A
FLAG -240 -32 A
FLAG -240 -160 B
FLAG -64 128 B
FLAG -64 -160 C
FLAG -64 256 C
FLAG -736 -112 0
FLAG -592 -224 A
FLAG -736 48 0
FLAG -592 -64 B
FLAG -736 208 0
FLAG -592 96 C
SYMBOL voltage -736 -224 R0
WINDOW 3 31 95 Left 2
WINDOW 123 0 0 Left 2
WINDOW 39 0 0 Left 2
SYMATTR Value PULSE(0 3.3 5n 2n 2n 20n 40n)
SYMATTR InstName VA
SYMBOL voltage -736 256 R0
WINDOW 123 0 0 Left 2
WINDOW 39 0 0 Left 2
SYMATTR InstName VDD
SYMATTR Value 3.3
SYMBOL voltage -736 -64 R0
WINDOW 3 31 95 Left 2
WINDOW 123 0 0 Left 2
WINDOW 39 0 0 Left 2
SYMATTR Value PULSE(0 3.3 5n 2n 2n 50n 100n)
SYMATTR InstName VB
SYMBOL nmos -208 80 R0
SYMATTR InstName M1
SYMATTR Value2 l=0.6u w=1.5u
SYMATTR SpiceModel ""
SYMATTR Value NMOS
SYMBOL nmos -32 80 R0
SYMATTR InstName M3
SYMATTR Value2 l=0.6u w=3u
SYMATTR SpiceModel ""
SYMATTR Value NMOS
SYMBOL nmos -32 208 R0
SYMATTR InstName M4
SYMATTR Value2 l=0.6u w=3u
SYMATTR SpiceModel ""
SYMATTR Value NMOS
SYMBOL pmos -208 -208 R0
SYMATTR InstName M5
SYMATTR Value2 l=0.6u w=6u
SYMATTR SpiceModel ""
SYMATTR Value PMOS
SYMBOL pmos -208 -80 R0
SYMATTR InstName M6
SYMATTR Value2 l=0.6u w=6u
SYMATTR SpiceModel ""
SYMATTR Value PMOS
SYMBOL pmos -32 -208 R0
SYMATTR InstName M8
SYMATTR Value2 l=0.6u w=6u
SYMATTR SpiceModel ""
SYMATTR Value PMOS
SYMBOL voltage -736 96 R0
WINDOW 3 31 95 Left 2
WINDOW 123 0 0 Left 2
WINDOW 39 0 0 Left 2
SYMATTR Value PULSE(0 3.3 5n 2n 2n 100n 200n)
SYMATTR InstName VC
SYMBOL buf -656 -224 R0
SYMATTR InstName X3
SYMBOL buf -656 -64 R0
SYMATTR InstName X1
SYMBOL buf -656 96 R0
SYMATTR InstName X2
TEXT -440 360 Left 2 !.tran 200ns
TEXT -440 384 Left 2 !.lib mhp_ns5.md
TEXT 32 0 Left 2 ;X = !(A + B.C)
TEXT -416 -272 Left 2 ;2-1 AOI gate
TEXT -232 168 Left 2 ;5/2
TEXT -64 -192 Left 2 ;20/2
TEXT -240 -200 Left 2 ;20/2
TEXT -240 -64 Left 2 ;20/2
TEXT -64 96 Left 2 ;10/2
TEXT -56 232 Left 2 ;10/2
