Version 4
SHEET 1 1292 680
WIRE -592 -144 -624 -144
WIRE -432 -144 -592 -144
WIRE -432 -112 -432 -144
WIRE -624 -96 -624 -144
WIRE -688 -48 -704 -48
WIRE -592 -48 -592 -144
WIRE -592 -48 -624 -48
WIRE -432 -16 -432 -32
WIRE -752 48 -880 48
WIRE -704 48 -704 -48
WIRE -704 48 -752 48
WIRE -624 48 -624 0
WIRE -576 48 -624 48
WIRE -512 48 -576 48
WIRE -512 64 -512 48
WIRE -624 96 -624 48
WIRE -880 128 -880 48
WIRE -704 144 -704 48
WIRE -688 144 -704 144
WIRE -592 144 -624 144
WIRE -512 160 -512 128
WIRE -880 256 -880 208
WIRE -624 256 -624 192
WIRE -592 256 -592 144
FLAG -624 256 0
FLAG -432 -16 0
FLAG -592 256 0
FLAG -880 256 0
FLAG -512 160 0
FLAG -576 48 y
FLAG -752 48 a
SYMBOL voltage -432 -128 R0
WINDOW 123 0 0 Left 2
WINDOW 39 0 0 Left 2
SYMATTR InstName VDD
SYMATTR Value {supply}
SYMBOL voltage -880 112 R0
WINDOW 123 0 0 Left 2
WINDOW 39 0 0 Left 2
WINDOW 3 -13 189 Left 2
SYMATTR Value PULSE(3.3 0 5n 1n 1n 20n)
SYMATTR InstName VA
SYMBOL cap -528 64 R0
SYMATTR InstName CLOAD
SYMATTR Value {CVAR}
SYMBOL pmos -672 -96 R0
SYMATTR InstName M1
SYMATTR Value2 l=0.6u w=0.9u
SYMBOL nmos -672 96 R0
SYMATTR InstName M2
SYMATTR SpiceModel ""
SYMATTR Value NMOS
SYMATTR Value2 l=0.6u w=0.9u
TEXT -712 -72 Left 2 ;3/2
TEXT -712 176 Left 2 ;3/2
TEXT -896 376 Left 2 !.measure tpdr TRIG v(a) VAL={supply/2} FALL=1 TARG v(y) VAL={supply/2} RISE=1\n.measure tpdf TRIG v(a) VAL={supply/2} RISE=1 TARG v(y) VAL={supply/2} FALL=1\n.measure tpd param=(tpdr+tpdf)/2
TEXT -520 208 Left 2 !.lib mhp_ns5.md\n.step param cvar list 10f 20f 50f 100f 200f 300f\n.tran 40n\n.param supply=3.3V
