Version 4
SHEET 1 1292 680
WIRE -1232 -240 -1264 -240
WIRE -1168 -240 -1232 -240
WIRE -1264 -192 -1264 -240
WIRE -1328 -144 -1360 -144
WIRE -1232 -144 -1232 -240
WIRE -1232 -144 -1264 -144
WIRE -1616 -80 -1680 -80
WIRE -1536 -80 -1568 -80
WIRE -1360 -80 -1360 -144
WIRE -1360 -80 -1408 -80
WIRE -1264 -80 -1264 -96
WIRE -1184 -80 -1264 -80
WIRE -1152 -80 -1184 -80
WIRE -1264 -48 -1264 -80
WIRE -1152 -48 -1152 -80
WIRE -1792 -32 -1792 -64
WIRE -1680 -32 -1680 -80
WIRE -1360 0 -1360 -80
WIRE -1328 0 -1360 0
WIRE -1232 0 -1264 0
WIRE -1152 48 -1152 16
WIRE -1792 96 -1792 48
WIRE -1680 96 -1680 48
WIRE -1264 96 -1264 48
WIRE -1232 96 -1232 0
FLAG -1264 96 0
FLAG -1792 96 0
FLAG -1184 -80 X
FLAG -1408 -80 A
FLAG -1680 96 0
FLAG -1152 48 0
FLAG -1536 -80 A
FLAG -1232 96 0
FLAG -1792 -64 $G_VDD
FLAG -1168 -240 $G_VDD
SYMBOL voltage -1792 -48 R0
WINDOW 123 0 0 Left 0
WINDOW 39 0 0 Left 0
WINDOW 3 10 108 Left 0
SYMATTR InstName V1
SYMATTR Value 3.3
SYMBOL voltage -1680 -48 R0
WINDOW 123 0 0 Left 0
WINDOW 39 0 0 Left 0
WINDOW 3 6 109 Left 0
SYMATTR Value PULSE(3.3 0 0.5n 0.1n 0.1n 2n)
SYMATTR InstName V2
SYMBOL cap -1168 -48 R0
SYMATTR InstName C1
SYMATTR Value 100fF
SYMBOL inverter -1600 -80 R0
SYMATTR InstName X1
SYMBOL nmos -1312 -48 R0
SYMATTR InstName M1
SYMATTR Value2 l=0.6u w=1.8u
SYMBOL pmos -1312 -192 R0
SYMATTR InstName M2
SYMATTR Value2 l=0.6u w=3u
TEXT -1552 152 Left 0 !.tran 6n
TEXT -1552 128 Left 0 !.lib mhp_ns5.md
TEXT -1360 -288 Left 0 ;Circuit Under Test
TEXT -1680 -152 Left 0 ;Signal Driver
