Version 4
SHEET 1 1292 680
WIRE -1440 -272 -1472 -272
WIRE -1520 -224 -1664 -224
WIRE -1472 -224 -1472 -272
WIRE -1472 -224 -1520 -224
WIRE -1440 -224 -1472 -224
WIRE -1296 -224 -1392 -224
WIRE -1472 -176 -1472 -224
WIRE -1440 -176 -1472 -176
WIRE -1440 -128 -1472 -128
WIRE -1664 -80 -1664 -224
WIRE -1600 -80 -1664 -80
WIRE -1520 -80 -1552 -80
WIRE -1472 -80 -1472 -128
WIRE -1472 -80 -1520 -80
WIRE -1440 -80 -1472 -80
WIRE -1296 -80 -1392 -80
WIRE -1664 -32 -1664 -80
WIRE -1472 -32 -1472 -80
WIRE -1440 -32 -1472 -32
WIRE -1184 -32 -1184 -64
WIRE -1664 96 -1664 48
WIRE -1184 96 -1184 48
FLAG -1184 96 0
FLAG -1664 96 0
FLAG -1520 -80 B
FLAG -1184 -64 $G_VDD
FLAG -1520 -224 A
FLAG -1296 -224 YA
FLAG -1296 -80 YB
SYMBOL voltage -1184 -48 R0
WINDOW 123 0 0 Left 2
WINDOW 39 0 0 Left 2
WINDOW 3 10 108 Left 2
SYMATTR Value {VDD}
SYMATTR InstName V1
SYMBOL voltage -1664 -48 R0
WINDOW 123 0 0 Left 2
WINDOW 39 0 0 Left 2
WINDOW 3 39 54 Left 2
SYMATTR Value PULSE(3.3 0 1n 10p 10p 2n)
SYMATTR InstName V2
SYMBOL buf -1584 -80 R0
SYMATTR InstName X2
SYMBOL inverter -1424 -176 R0
SYMATTR InstName X1
SYMBOL inverter -1424 -80 R0
SYMATTR InstName X3
SYMBOL inverter -1424 -32 R0
SYMATTR InstName X4
SYMBOL inverter -1424 -128 R0
SYMATTR InstName X5
SYMBOL inverter -1424 -224 R0
SYMATTR InstName X6
SYMBOL inverter -1424 -272 R0
SYMATTR InstName X7
TEXT -1752 128 Left 2 !.measure TRA TRIG v(A) VAL={VDD/2} FALL=1 TARG v(YA) VAL={VDD/2} RISE=1\n.measure TFA TRIG v(A) VAL={VDD/2} RISE=1 TARG v(YA) VAL={VDD/2} FALL=1\n.measure TA param=(TRA+TFA)/2\n.measure TRB TRIG v(B) VAL={VDD/2} FALL=1 TARG v(YB) VAL={VDD/2} RISE=1\n.measure TFB TRIG v(B) VAL={VDD/2} RISE=1 TARG v(YB) VAL={VDD/2} FALL=1\n.measure TB param=(TRB+TFB)/2
TEXT -1624 40 Left 2 !.tran 5n\n.lib mhp_ns5.md\n.param VDD 3.3
