Version 4
SHEET 1 1112 1464
WIRE -48 0 -192 0
WIRE 192 16 96 16
WIRE -48 32 -192 32
WIRE 192 48 96 48
WIRE -48 64 -192 64
WIRE -416 208 -416 176
WIRE -320 208 -320 176
WIRE -224 208 -224 176
WIRE 272 208 272 176
WIRE -416 336 -416 288
WIRE -320 336 -320 288
WIRE -224 336 -224 288
WIRE 272 336 272 288
FLAG 272 176 $G_VDD
FLAG 272 336 0
FLAG -320 176 Cin
FLAG -320 336 0
FLAG -416 176 ZERO
FLAG -416 336 0
FLAG -224 176 A
FLAG -224 336 0
FLAG 192 16 S
FLAG 192 48 Cout
FLAG -192 64 Cin
FLAG -192 32 ZERO
FLAG -192 0 A
SYMBOL voltage 272 192 R0
WINDOW 123 0 0 Left 0
WINDOW 39 0 0 Left 0
SYMATTR InstName V5
SYMATTR Value 3.3
SYMBOL voltage -320 192 R0
WINDOW 123 0 0 Left 0
WINDOW 39 0 0 Left 0
SYMATTR InstName V2
SYMATTR Value PULSE(3.3 0 15n 0.1n 0.1n 5n 20n)
SYMBOL voltage -416 192 R0
WINDOW 123 0 0 Left 0
WINDOW 39 0 0 Left 0
SYMATTR InstName V3
SYMATTR Value 0
SYMBOL voltage -224 192 R0
WINDOW 3 305 57 Right 0
WINDOW 123 0 0 Left 0
WINDOW 39 0 0 Left 0
SYMATTR Value PULSE(0 3.3 5n 0.1n 0.1n 5n 40n)
SYMATTR InstName V4
SYMBOL fa 16 32 R0
SYMATTR InstName X1
TEXT 40 328 Left 0 !.lib mhp_ns5.md
TEXT 40 304 Left 0 !.tran 25n
