Version 4
SHEET 1 1292 680
WIRE -592 -144 -624 -144
WIRE -432 -144 -592 -144
WIRE -432 -112 -432 -144
WIRE -624 -96 -624 -144
WIRE -688 -48 -704 -48
WIRE -592 -48 -592 -144
WIRE -592 -48 -624 -48
WIRE -432 -16 -432 -32
WIRE -816 48 -912 48
WIRE -704 48 -704 -48
WIRE -704 48 -816 48
WIRE -624 48 -624 0
WIRE -528 48 -624 48
WIRE -432 48 -528 48
WIRE -432 64 -432 48
WIRE -624 96 -624 48
WIRE -912 128 -912 48
WIRE -704 144 -704 48
WIRE -688 144 -704 144
WIRE -592 144 -624 144
WIRE -432 160 -432 128
WIRE -624 208 -624 192
WIRE -592 208 -592 144
WIRE -592 208 -624 208
WIRE -912 256 -912 208
WIRE -624 256 -624 208
FLAG -624 256 0
FLAG -432 -16 0
FLAG -912 256 0
FLAG -432 160 0
FLAG -528 48 Out
FLAG -816 48 In
SYMBOL voltage -432 -128 R0
WINDOW 123 0 0 Left 2
WINDOW 39 0 0 Left 2
SYMATTR InstName VDD
SYMATTR Value 3
SYMBOL voltage -912 112 R0
WINDOW 123 0 0 Left 2
WINDOW 39 0 0 Left 2
WINDOW 3 7 129 Left 2
SYMATTR Value PULSE(3 0 5n 1n 1n 20n)
SYMATTR InstName VA
SYMBOL cap -448 64 R0
SYMATTR InstName CLOAD
SYMATTR Value {CVAR}
SYMBOL pmos -672 -96 R0
SYMATTR InstName M1
SYMATTR Value2 l=0.6u w=0.9u
SYMBOL nmos -672 96 R0
SYMATTR InstName M2
SYMATTR SpiceModel ""
SYMATTR Value NMOS
SYMATTR Value2 l=0.6u w=0.9u
TEXT -568 232 Left 2 !.tran 40n
TEXT -568 208 Left 2 !.lib mhp_ns5.md
TEXT -568 256 Left 2 !.step param cvar list 100f 300f 500f
TEXT -712 -72 Left 2 ;3/2
TEXT -712 176 Left 2 ;3/2
TEXT -928 -136 Left 2 ;3/2 --> W = 3*lambda = 0.9u \n        L = 2*lambda = 0.6u
