Version 4
SHEET 1 1292 836
WIRE -896 64 -960 64
WIRE -848 64 -896 64
WIRE -736 64 -800 64
WIRE -688 64 -736 64
WIRE -560 64 -592 64
WIRE -960 80 -960 64
WIRE -688 96 -688 64
WIRE -592 96 -592 64
WIRE -960 192 -960 160
WIRE -688 192 -688 160
WIRE -592 192 -592 176
FLAG -592 192 0
FLAG -960 192 0
FLAG -688 192 0
FLAG -560 64 $G_VDD
FLAG -896 64 A
FLAG -736 64 B
SYMBOL voltage -592 80 R0
WINDOW 123 0 0 Left 2
WINDOW 39 0 0 Left 2
WINDOW 0 40 49 Left 2
WINDOW 3 40 69 Left 2
SYMATTR InstName VDD
SYMATTR Value {VDD}
SYMBOL voltage -960 64 R0
WINDOW 123 0 0 Left 2
WINDOW 39 0 0 Left 2
WINDOW 3 4 113 Left 2
SYMATTR Value PULSE({VDD} 0 1n {slope} {slope} {ton})
SYMATTR InstName VA
SYMBOL cap -704 96 R0
WINDOW 3 -33 12 Left 2
SYMATTR Value 200fF
SYMATTR InstName C1
SYMBOL inverter -832 64 R0
SYMATTR InstName X1
TEXT -968 232 Left 2 !.lib cmos.lib\n.step param slope list 0.1n 0.5n 1n 1.5n 2n 2.5n \n.tran 16n\n.param VDD=3V\n.param ton=10n-{slope}
TEXT -968 328 Left 2 !.measure tPLH TRIG V(A) VAL={VDD/2} FALL=1  TARG V(B) VAL={VDD/2} RISE=1\n.measure tPHL TRIG V(A) VAL={VDD/2} RISE=1  TARG V(B) VAL={VDD/2} FALL=1\n.measure tP param=(tPLH+tPHL)/2
