Version 4
SHEET 1 880 680
WIRE 48 128 16 128
WIRE 128 128 96 128
WIRE 208 128 176 128
WIRE 288 128 256 128
WIRE 368 128 336 128
WIRE 448 128 416 128
WIRE 608 128 608 96
WIRE 16 176 16 128
WIRE 448 176 448 128
WIRE 448 176 16 176
WIRE 608 240 608 208
FLAG 608 240 0
FLAG 608 96 $G_VDD
SYMBOL inverter 64 128 R0
SYMATTR InstName X1
SYMBOL inverter 144 128 R0
SYMATTR InstName X2
SYMBOL inverter 224 128 R0
SYMATTR InstName X3
SYMBOL inverter 304 128 R0
SYMATTR InstName X4
SYMBOL inverter 384 128 R0
SYMATTR InstName X5
SYMBOL voltage 608 112 R0
WINDOW 123 0 0 Left 2
WINDOW 39 0 0 Left 2
SYMATTR InstName V1
SYMATTR Value 3.3
TEXT 48 216 Left 2 !.lib mhp_ns5.md
TEXT 48 248 Left 2 !.tran 40ns
