Version 4
SHEET 1 1292 680
WIRE -608 -48 -624 -48
WIRE -400 -48 -608 -48
WIRE -624 -32 -624 -48
WIRE -688 16 -704 16
WIRE -608 16 -608 -48
WIRE -608 16 -624 16
WIRE -400 48 -400 -48
WIRE -832 80 -864 80
WIRE -704 80 -704 16
WIRE -704 80 -832 80
WIRE -624 80 -624 64
WIRE -576 80 -624 80
WIRE -544 80 -576 80
WIRE -624 96 -624 80
WIRE -864 112 -864 80
WIRE -544 128 -544 80
WIRE -704 144 -704 80
WIRE -688 144 -704 144
WIRE -608 144 -624 144
WIRE -864 256 -864 192
WIRE -624 256 -624 192
WIRE -608 256 -608 144
WIRE -544 256 -544 192
WIRE -400 256 -400 128
FLAG -624 256 0
FLAG -400 256 0
FLAG -832 80 a
FLAG -608 256 0
FLAG -864 256 0
FLAG -544 256 0
FLAG -576 80 y
SYMBOL voltage -400 32 R0
WINDOW 123 0 0 Left 2
WINDOW 39 0 0 Left 2
SYMATTR InstName V2
SYMATTR Value {Vdd}
SYMBOL voltage -864 96 R0
WINDOW 123 0 0 Left 2
WINDOW 39 0 0 Left 2
WINDOW 3 12 131 Left 2
SYMATTR Value PULSE(3.3 0 5n 1n 1n 20n)
SYMATTR InstName V1
SYMBOL cap -560 128 R0
SYMATTR InstName CLOAD
SYMATTR Value 100fF
SYMBOL pmos -672 -32 R0
WINDOW 0 21 31 Left 2
SYMATTR InstName M1
SYMATTR Value2 l=0.6u w={Wp}
SYMATTR SpiceModel ""
SYMATTR Value PMOS
SYMBOL nmos -672 96 R0
SYMATTR InstName M2
SYMATTR Value NMOS
SYMATTR Value2 l=0.6u w={Wn}
TEXT -304 152 Left 2 !.tran 40n
TEXT -304 176 Left 2 !.lib cmos.lib
TEXT -304 208 Left 2 !.step param  beta list 1 1.5 2 2.5 3 3.5 4
TEXT -304 232 Left 2 !.param Wn=1.5u\n.param Wp=beta*Wn\n.param Lmin=0.6u
TEXT -304 192 Left 2 !.param Vdd=3V
TEXT -784 -8 Left 2 ;L=Lmin W={Wp}
TEXT -776 168 Left 2 ;L=Lmin W={Wn}
TEXT -872 288 Left 2 !.measure trise TRIG v(y) VAL={Vdd*0.1} RISE=1 TARG v(y) VAL={Vdd*0.9} RISE=1\n.measure tfall TRIG v(y) VAL={Vdd*0.9} FALL=1 TARG v(y) VAL={Vdd*0.1} FALL=1
