Version 4
SHEET 1 1292 836
WIRE -832 64 -960 64
WIRE -752 64 -832 64
WIRE -608 64 -704 64
WIRE -544 64 -608 64
WIRE -304 64 -336 64
WIRE -960 80 -960 64
WIRE -544 96 -544 64
WIRE -336 96 -336 64
WIRE -960 192 -960 160
WIRE -544 192 -544 160
WIRE -336 192 -336 176
FLAG -336 192 0
FLAG -960 192 0
FLAG -544 192 0
FLAG -304 64 $G_VDD
FLAG -832 64 A
FLAG -608 64 Y
SYMBOL voltage -336 80 R0
WINDOW 123 0 0 Left 2
WINDOW 39 0 0 Left 2
WINDOW 0 40 49 Left 2
WINDOW 3 40 69 Left 2
SYMATTR InstName VDD
SYMATTR Value {supply}
SYMBOL voltage -960 64 R0
WINDOW 123 0 0 Left 2
WINDOW 39 0 0 Left 2
WINDOW 3 12 103 Left 2
SYMATTR Value PULSE(3.3 0 1n {slope} {slope} 10n)
SYMATTR InstName VA
SYMBOL cap -560 96 R0
WINDOW 3 47 28 Left 2
SYMATTR Value 200fF
SYMATTR InstName C1
SYMBOL inverter -736 64 R0
SYMATTR InstName X1
TEXT -608 264 Left 2 !.lib mhp_ns5.md\n.step param slope list 0.01n 0.1n 1n 2n\n.tran 20n\n.param supply=3.3V
TEXT -936 352 Left 2 !.measure tpdr TRIG v(a) VAL={supply/2} FALL=1  TARG v(y) VAL={supply/2} RISE=1\n.measure tpdf TRIG v(a) VAL={supply/2} RISE=1  TARG v(y) VAL={supply/2} FALL=1\n.measure tpd param=(tpdr+tpdf)/2
