Version 4
SHEET 1 1292 680
WIRE -608 -48 -624 -48
WIRE -528 -48 -608 -48
WIRE -496 -48 -528 -48
WIRE -624 -32 -624 -48
WIRE -688 16 -704 16
WIRE -608 16 -608 -48
WIRE -608 16 -624 16
WIRE -496 16 -496 -48
WIRE -752 80 -800 80
WIRE -704 80 -704 16
WIRE -704 80 -752 80
WIRE -624 80 -624 64
WIRE -576 80 -624 80
WIRE -560 80 -576 80
WIRE -624 96 -624 80
WIRE -800 112 -800 80
WIRE -560 112 -560 80
WIRE -704 144 -704 80
WIRE -688 144 -704 144
WIRE -608 144 -624 144
WIRE -624 208 -624 192
WIRE -608 208 -608 144
WIRE -608 208 -624 208
WIRE -800 256 -800 192
WIRE -624 256 -624 208
WIRE -560 256 -560 176
WIRE -496 256 -496 96
FLAG -624 256 0
FLAG -496 256 0
FLAG -800 256 0
FLAG -560 256 0
FLAG -576 80 y
FLAG -752 80 a
FLAG -528 -48 Vdd
SYMBOL voltage -496 0 R0
WINDOW 123 0 0 Left 2
WINDOW 39 0 0 Left 2
SYMATTR InstName Vdd
SYMATTR Value 3V
SYMBOL voltage -800 96 R0
WINDOW 123 0 0 Left 2
WINDOW 39 0 0 Left 2
WINDOW 3 -45 181 Left 2
SYMATTR Value PULSE(3 0 5n 0.5n 0.5n 20n 100n)
SYMATTR InstName V1
SYMBOL cap -576 112 R0
SYMATTR InstName CLOAD
SYMATTR Value 50fF
SYMBOL pmos -672 -32 R0
WINDOW 0 21 31 Left 2
SYMATTR InstName M1
SYMATTR Value2 l=0.6u w=3u
SYMATTR SpiceModel ""
SYMATTR Value PMOS
SYMBOL nmos -672 96 R0
SYMATTR InstName M2
SYMATTR Value NMOS
SYMATTR Value2 l=0.6u w=1.5u
TEXT -424 168 Left 2 !.tran 40n
TEXT -424 144 Left 2 !.lib cmos.lib
TEXT -712 -8 Left 2 ;10/2
TEXT -712 176 Left 2 ;5/2
