Version 4
SHEET 1 1292 836
WIRE -832 64 -960 64
WIRE -704 64 -832 64
WIRE -608 64 -656 64
WIRE -544 64 -608 64
WIRE -304 64 -336 64
WIRE -960 80 -960 64
WIRE -544 96 -544 64
WIRE -336 96 -336 64
WIRE -544 176 -544 160
WIRE -960 192 -960 160
WIRE -336 192 -336 176
WIRE -832 272 -960 272
WIRE -704 272 -832 272
WIRE -608 272 -656 272
WIRE -544 272 -608 272
WIRE -960 304 -960 272
WIRE -544 304 -544 272
WIRE -544 384 -544 368
WIRE -960 416 -960 384
FLAG -336 192 0
FLAG -960 192 0
FLAG -960 416 0
FLAG -544 384 0
FLAG -544 176 0
FLAG -304 64 $G_VDD
FLAG -832 64 A
FLAG -832 272 B
FLAG -608 64 Out1
FLAG -608 272 Out2
SYMBOL voltage -336 80 R0
WINDOW 123 0 0 Left 0
WINDOW 39 0 0 Left 0
WINDOW 0 40 49 Left 0
WINDOW 3 43 74 Left 0
SYMATTR InstName VDD
SYMATTR Value 3.3
SYMBOL voltage -960 64 R0
WINDOW 123 0 0 Left 0
WINDOW 39 0 0 Left 0
WINDOW 3 12 103 Left 0
SYMATTR Value PULSE(3.3 0 1n 1n 1n 10n)
SYMATTR InstName VA
SYMBOL cap -560 96 R0
WINDOW 3 47 28 Left 0
SYMATTR Value 200fF
SYMATTR InstName C1
SYMBOL voltage -960 288 R0
WINDOW 123 0 0 Left 0
WINDOW 39 0 0 Left 0
WINDOW 3 13 104 Left 0
SYMATTR Value PULSE(3.3 0 1n 0.1n 0.1n 10n)
SYMATTR InstName VB
SYMBOL cap -560 304 R0
WINDOW 3 52 29 Left 0
SYMATTR Value 200fF
SYMATTR InstName C2
SYMBOL inverter -688 64 R0
SYMATTR InstName X1
SYMBOL inverter -688 272 R0
SYMATTR InstName X2
TEXT -344 360 Left 0 !.tran 20n
TEXT -344 336 Left 0 !.lib mhp_ns5.md
