Version 4
SHEET 1 880 680
WIRE 512 112 512 80
WIRE -272 128 -304 128
WIRE -192 128 -224 128
WIRE -112 128 -144 128
WIRE -32 128 -64 128
WIRE 48 128 16 128
WIRE 128 128 96 128
WIRE 208 128 176 128
WIRE 288 128 256 128
WIRE 368 128 336 128
WIRE 448 128 416 128
WIRE -304 176 -304 128
WIRE 448 176 448 128
WIRE 448 176 -304 176
WIRE 512 224 512 192
FLAG 512 224 0
FLAG 512 80 $G_VDD
SYMBOL inverter 64 128 R0
SYMATTR InstName X1
SYMBOL inverter 144 128 R0
SYMATTR InstName X2
SYMBOL inverter 224 128 R0
SYMATTR InstName X3
SYMBOL inverter 304 128 R0
SYMATTR InstName X4
SYMBOL inverter 384 128 R0
SYMATTR InstName X5
SYMBOL voltage 512 96 R0
WINDOW 123 0 0 Left 2
WINDOW 39 0 0 Left 2
SYMATTR InstName V1
SYMATTR Value 3
SYMBOL inverter -256 128 R0
SYMATTR InstName X6
SYMBOL inverter -176 128 R0
SYMATTR InstName X7
SYMBOL inverter -96 128 R0
SYMATTR InstName X8
SYMBOL inverter -16 128 R0
SYMATTR InstName X9
TEXT 48 216 Left 2 !.lib cmos.lib
TEXT 48 248 Left 2 !.tran 15ns
