Version 4
SHEET 1 1292 680
WIRE -592 -96 -624 -96
WIRE -368 -96 -592 -96
WIRE -368 -64 -368 -96
WIRE -624 -48 -624 -96
WIRE -688 0 -720 0
WIRE -592 0 -592 -96
WIRE -592 0 -624 0
WIRE -368 32 -368 16
WIRE -800 64 -880 64
WIRE -720 64 -720 0
WIRE -720 64 -800 64
WIRE -624 64 -624 48
WIRE -528 64 -624 64
WIRE -880 96 -880 64
WIRE -624 96 -624 64
WIRE -720 144 -720 64
WIRE -688 144 -720 144
WIRE -592 144 -624 144
WIRE -880 208 -880 176
WIRE -624 256 -624 192
WIRE -592 256 -592 144
WIRE -592 256 -624 256
WIRE -624 288 -624 256
FLAG -624 288 0
FLAG -368 32 0
FLAG -800 64 In
FLAG -528 64 Out
FLAG -880 208 0
SYMBOL voltage -368 -80 R0
WINDOW 123 0 0 Left 2
WINDOW 39 0 0 Left 2
SYMATTR InstName VDD
SYMATTR Value 3.3
SYMBOL voltage -880 80 R0
WINDOW 123 0 0 Left 2
WINDOW 39 0 0 Left 2
SYMATTR InstName VA
SYMATTR Value ""
SYMBOL pmos -672 48 M180
WINDOW 39 56 100 Left 2
WINDOW 40 56 128 Left 2
SYMATTR InstName M3
SYMATTR Value2 l=0.6u w={WP}
SYMBOL nmos -672 96 R0
SYMATTR InstName M1
SYMATTR Value2 l=0.6u w=1.5u
SYMATTR SpiceModel ""
SYMATTR Value NMOS
TEXT -552 184 Left 2 !.lib mhp_ns5.md
TEXT -552 224 Left 2 !.dc VA 0 3.3 0.01
TEXT -552 264 Left 2 !.step param  WP list 1.5u 3u 3.6u 4.5u
TEXT -704 168 Left 2 ;5/2
TEXT -760 -56 Left 2 ;L = 0.6u\nW = {WP}
