Version 4
SHEET 1 1292 680
WIRE -1184 -416 -1184 -448
WIRE -1184 -416 -1296 -416
WIRE -1296 -368 -1296 -416
WIRE -1280 -368 -1296 -368
WIRE -1184 -368 -1184 -416
WIRE -1168 -368 -1184 -368
WIRE -1296 -352 -1296 -368
WIRE -1184 -352 -1184 -368
WIRE -1696 -320 -1744 -320
WIRE -1616 -320 -1648 -320
WIRE -1360 -304 -1376 -304
WIRE -1280 -304 -1280 -368
WIRE -1280 -304 -1296 -304
WIRE -1248 -304 -1264 -304
WIRE -1168 -304 -1168 -368
WIRE -1168 -304 -1184 -304
WIRE -1744 -288 -1744 -320
WIRE -1296 -208 -1296 -256
WIRE -1184 -208 -1184 -256
WIRE -1184 -208 -1296 -208
WIRE -1088 -208 -1184 -208
WIRE -1040 -208 -1088 -208
WIRE -1744 -192 -1744 -208
WIRE -1184 -160 -1184 -208
WIRE -1696 -144 -1744 -144
WIRE -1616 -144 -1648 -144
WIRE -912 -144 -912 -176
WIRE -1088 -128 -1088 -208
WIRE -1744 -112 -1744 -144
WIRE -1264 -112 -1264 -304
WIRE -1264 -112 -1408 -112
WIRE -1248 -112 -1264 -112
WIRE -1152 -112 -1184 -112
WIRE -1184 -48 -1184 -64
WIRE -912 -48 -912 -64
WIRE -1744 -16 -1744 -32
WIRE -1088 -16 -1088 -64
WIRE -1376 0 -1376 -304
WIRE -1376 0 -1408 0
WIRE -1248 0 -1376 0
WIRE -1152 0 -1152 -112
WIRE -1152 0 -1184 0
WIRE -1184 80 -1184 48
WIRE -1152 80 -1152 0
WIRE -1152 80 -1184 80
WIRE -1184 112 -1184 80
FLAG -1184 112 0
FLAG -1040 -208 out
IOPIN -1040 -208 Out
FLAG -1184 -448 $G_VDD
FLAG -1408 -112 A
IOPIN -1408 -112 In
FLAG -1408 0 B
IOPIN -1408 0 In
FLAG -1744 -192 0
FLAG -1616 -320 A
FLAG -1744 -16 0
FLAG -1616 -144 B
FLAG -912 -48 0
FLAG -912 -176 $G_VDD
FLAG -1088 -16 0
SYMBOL pmos -1232 -352 R0
SYMATTR InstName M2
SYMATTR Value2 l=0.6u w=3u
SYMATTR SpiceModel ""
SYMATTR Value PMOS
SYMBOL nmos -1232 -48 R0
SYMATTR InstName M4
SYMATTR Value2 l=0.6u w=1.5u
SYMATTR SpiceModel ""
SYMATTR Value NMOS
SYMBOL pmos -1344 -352 R0
SYMATTR InstName M1
SYMATTR Value2 l=0.6u w=3u
SYMATTR SpiceModel ""
SYMATTR Value PMOS
SYMBOL nmos -1232 -160 R0
SYMATTR InstName M3
SYMATTR Value2 l=0.6u w=1.5u
SYMATTR SpiceModel ""
SYMATTR Value NMOS
SYMBOL voltage -1744 -304 R0
WINDOW 123 0 0 Left 2
WINDOW 39 0 0 Left 2
WINDOW 3 19 98 Left 2
SYMATTR Value PULSE({VDD} 0 15n 0.5n 0.5n 5n)
SYMATTR InstName VA1
SYMBOL buf -1680 -320 R0
SYMATTR InstName X1
SYMBOL voltage -1744 -128 R0
WINDOW 123 0 0 Left 2
WINDOW 39 0 0 Left 2
WINDOW 3 18 96 Left 2
SYMATTR Value PULSE({VDD} 0 2n 0.5n 0.5n 5n)
SYMATTR InstName VB1
SYMBOL buf -1680 -144 R0
SYMATTR InstName X2
SYMBOL voltage -912 -160 R0
WINDOW 123 0 0 Left 2
WINDOW 39 0 0 Left 2
WINDOW 0 47 45 Left 2
WINDOW 3 41 64 Left 2
SYMATTR InstName VDD1
SYMATTR Value {VDD}
SYMBOL cap -1104 -128 R0
SYMATTR InstName C1
SYMATTR Value {CL}
TEXT -1264 -336 Left 2 ;10/2
TEXT -1376 -336 Left 2 ;10/2
TEXT -1256 -136 Left 2 ;5/2
TEXT -1256 -24 Left 2 ;5/2
TEXT -1008 -336 Left 2 !.lib cmos.lib\n.tran 25n\n.param VDD 3V\n.param CL 100f
