Version 4
SHEET 1 1292 680
WIRE -1344 -352 -1392 -352
WIRE -1216 -336 -1264 -336
WIRE -1616 -320 -1664 -320
WIRE -1536 -320 -1568 -320
WIRE -1344 -320 -1392 -320
WIRE -1216 -304 -1216 -336
WIRE -1664 -288 -1664 -320
WIRE -1216 -224 -1216 -240
WIRE -1664 -192 -1664 -208
WIRE -1344 -160 -1392 -160
WIRE -1216 -144 -1264 -144
WIRE -1616 -128 -1664 -128
WIRE -1536 -128 -1568 -128
WIRE -1344 -128 -1392 -128
WIRE -1056 -128 -1056 -160
WIRE -1216 -112 -1216 -144
WIRE -1664 -96 -1664 -128
WIRE -1216 -32 -1216 -48
WIRE -1056 -32 -1056 -48
WIRE -1664 0 -1664 -16
FLAG -1056 -32 0
FLAG -1664 0 0
FLAG -1664 -192 0
FLAG -1392 -352 A
FLAG -1392 -320 B
FLAG -1216 -336 Out1
FLAG -1056 -160 $G_VDD
FLAG -1536 -320 A
FLAG -1536 -128 B
FLAG -1216 -224 0
FLAG -1216 -144 Out2
FLAG -1216 -32 0
FLAG -1392 -160 A
FLAG -1392 -128 B
SYMBOL voltage -1056 -144 R0
WINDOW 123 0 0 Left 2
WINDOW 39 0 0 Left 2
WINDOW 0 47 45 Left 2
WINDOW 3 41 64 Left 2
SYMATTR InstName VDD
SYMATTR Value {VDD}
SYMBOL cap -1232 -304 R0
SYMATTR InstName Cload
SYMATTR Value {CL}
SYMBOL voltage -1664 -112 R0
WINDOW 123 0 0 Left 2
WINDOW 39 0 0 Left 2
WINDOW 3 18 96 Left 2
SYMATTR Value PULSE({VDD} 0 2n 0.5n 0.5n 5n)
SYMATTR InstName VB
SYMBOL voltage -1664 -304 R0
WINDOW 123 0 0 Left 2
WINDOW 39 0 0 Left 2
WINDOW 3 19 98 Left 2
SYMATTR Value PULSE({VDD} 0 15n 0.5n 0.5n 5n)
SYMATTR InstName VA
SYMBOL nand2 -1312 -336 R0
SYMATTR InstName X3
SYMBOL nand2a -1312 -144 R0
SYMATTR InstName X4
SYMBOL cap -1232 -112 R0
SYMATTR InstName Cload1
SYMATTR Value {CL}
SYMBOL buf -1600 -320 R0
SYMATTR InstName X1
SYMBOL buf -1600 -128 R0
SYMATTR InstName X2
TEXT -1336 -120 Left 2 ;20/10
TEXT -1336 -312 Left 2 ;20/20
TEXT -1088 -336 Left 2 !.lib mhp_ns5.md\n.tran 25n\n.param VDD 3.3V\n.param CL 100f
