Version 4
SHEET 1 1292 680
WIRE -1104 -784 -1152 -784
WIRE -896 -784 -1104 -784
WIRE -1152 -736 -1152 -784
WIRE -1216 -688 -1328 -688
WIRE -1120 -688 -1152 -688
WIRE -1056 -640 -1152 -640
WIRE -1024 -640 -1056 -640
WIRE -1024 -624 -1024 -640
WIRE -896 -624 -896 -784
WIRE -1328 -576 -1328 -688
WIRE -1328 -576 -1440 -576
WIRE -1024 -544 -1024 -560
WIRE -1440 -512 -1440 -576
WIRE -1056 -512 -1152 -512
WIRE -1024 -512 -1056 -512
WIRE -1024 -480 -1024 -512
WIRE -1328 -464 -1328 -576
WIRE -1216 -464 -1328 -464
WIRE -1104 -464 -1104 -784
WIRE -1104 -464 -1152 -464
WIRE -896 -384 -896 -544
WIRE -1152 -368 -1152 -416
WIRE -1024 -368 -1024 -416
WIRE -1440 -352 -1440 -432
FLAG -896 -384 0
FLAG -1440 -352 0
FLAG -1152 -368 0
FLAG -1024 -368 0
FLAG -1024 -544 0
FLAG -1056 -640 UP
FLAG -1056 -512 DOWN
FLAG -1120 -688 0
SYMBOL voltage -1440 -528 R0
WINDOW 123 0 0 Left 2
WINDOW 39 0 0 Left 2
WINDOW 3 44 70 Left 2
WINDOW 0 18 8 Left 2
SYMATTR Value 0
SYMATTR InstName VA
SYMBOL voltage -896 -640 R0
WINDOW 123 0 0 Left 2
WINDOW 39 0 0 Left 2
WINDOW 3 -12 57 Left 2
SYMATTR Value 3.3V
SYMATTR InstName VDD
SYMBOL pmos -1200 -512 R0
SYMATTR InstName M2
SYMATTR SpiceModel ""
SYMATTR Value PMOS
SYMATTR Value2 l=0.6u w=3u
SYMBOL cap -1040 -480 R0
SYMATTR InstName C1
SYMATTR Value 50f
SYMBOL cap -1040 -624 R0
SYMATTR InstName C2
SYMATTR Value 50f
SYMBOL nmos -1200 -736 R0
SYMATTR InstName M1
SYMATTR SpiceModel ""
SYMATTR Value NMOS
SYMATTR Value2 l=0.6u w=1.5u
TEXT -1448 -744 Left 2 !.dc VA 0 3.3V 
TEXT -1448 -776 Left 2 !.lib cmos.lib
