Version 4
SHEET 1 1292 680
WIRE -2080 -368 -2080 -384
WIRE -1568 -352 -1568 -384
WIRE -1248 -352 -1248 -384
WIRE -1424 -304 -1504 -304
WIRE -1312 -304 -1376 -304
WIRE -2080 -272 -2080 -288
WIRE -2080 -224 -2080 -240
WIRE -1568 -208 -1568 -256
WIRE -1568 -208 -1632 -208
WIRE -1248 -208 -1248 -256
WIRE -1200 -208 -1248 -208
WIRE -1568 -160 -1568 -208
WIRE -1424 -160 -1376 -304
WIRE -1424 -160 -1568 -160
WIRE -1376 -160 -1424 -304
WIRE -1248 -160 -1248 -208
WIRE -1248 -160 -1376 -160
WIRE -2080 -128 -2080 -144
WIRE -1248 -128 -1248 -160
WIRE -1248 -128 -1312 -128
WIRE -1184 -128 -1248 -128
WIRE -1568 -112 -1568 -160
WIRE -1312 -112 -1312 -128
WIRE -1184 -112 -1184 -128
WIRE -976 -96 -976 -128
WIRE -1088 -80 -1088 -128
WIRE -1040 -80 -1040 -128
WIRE -1552 -64 -1568 -64
WIRE -1296 -64 -1312 -64
WIRE -1168 -64 -1184 -64
WIRE -1552 -48 -1552 -64
WIRE -1296 -48 -1296 -64
WIRE -1168 -48 -1168 -64
WIRE -2080 -32 -2080 -48
WIRE -1312 0 -1312 -16
WIRE -1248 0 -1312 0
WIRE -1184 0 -1184 -16
WIRE -1184 0 -1248 0
WIRE -1568 16 -1568 -16
WIRE -1088 16 -1088 -16
WIRE -1040 16 -1040 -16
WIRE -976 16 -976 -16
WIRE -2080 64 -2080 48
WIRE -1552 64 -1568 64
WIRE -1248 64 -1248 0
WIRE -1552 80 -1552 64
WIRE -2080 112 -2080 96
WIRE -1568 160 -1568 112
WIRE -2080 208 -2080 192
FLAG -2080 64 0
FLAG -976 -128 VDD
FLAG -976 16 0
FLAG -2080 -128 0
FLAG -1088 16 0
FLAG -1040 16 0
FLAG -1040 -128 F
FLAG -1088 -128 !F
FLAG -1248 64 0
FLAG -1568 160 0
FLAG -1248 -384 VDD
FLAG -1568 -384 VDD
FLAG -1632 -208 F
FLAG -1200 -208 !F
FLAG -1632 -64 A
FLAG -1376 -64 !A
FLAG -1632 64 B
FLAG -1248 -64 !B
FLAG -1168 -48 0
FLAG -1296 -48 0
FLAG -1552 -48 0
FLAG -1552 80 0
FLAG -1248 -304 VDD
FLAG -1568 -304 VDD
FLAG -2080 -240 !A
FLAG -2080 -48 B
FLAG -2080 208 0
FLAG -2080 96 !B
FLAG -2080 -272 0
FLAG -2080 -384 A
SYMBOL voltage -2080 -48 R0
WINDOW 123 0 0 Left 2
WINDOW 39 0 0 Left 2
WINDOW 3 12 101 Left 2
WINDOW 0 39 46 Left 2
SYMATTR Value PULSE(3 0 10n 1n 1n 20n 40n)
SYMATTR InstName V3
SYMBOL voltage -976 -112 R0
WINDOW 123 0 0 Left 2
WINDOW 39 0 0 Left 2
SYMATTR InstName V1
SYMATTR Value 3V
SYMBOL voltage -2080 -240 R0
WINDOW 123 0 0 Left 2
WINDOW 39 0 0 Left 2
WINDOW 3 23 102 Left 2
WINDOW 0 38 38 Left 2
SYMATTR Value PULSE(0 3 5n 1n 1n 10n 20n)
SYMATTR InstName V2
SYMBOL cap -1104 -80 R0
SYMATTR InstName C1
SYMATTR Value 50fF
SYMBOL cap -1056 -80 R0
SYMATTR InstName C2
SYMATTR Value 50fF
SYMBOL pmos -1520 -352 M0
SYMATTR InstName M1
SYMATTR SpiceModel ""
SYMATTR Value PMOS
SYMATTR Value2 l=0.6u w=1u
SYMBOL pmos -1296 -352 R0
SYMATTR InstName M2
SYMATTR SpiceModel ""
SYMATTR Value PMOS
SYMATTR Value2 l=0.6u w=1u
SYMBOL nmos -1616 -112 R0
SYMATTR InstName M3
SYMATTR SpiceModel ""
SYMATTR Value NMOS
SYMATTR Value2 l=0.6u w=2u
SYMBOL nmos -1616 16 R0
SYMATTR InstName M4
SYMATTR SpiceModel ""
SYMATTR Value NMOS
SYMATTR Value2 l=0.6u w=2u
SYMBOL nmos -1360 -112 R0
SYMATTR InstName M5
SYMATTR SpiceModel ""
SYMATTR Value NMOS
SYMATTR Value2 l=0.6u w=1u
SYMBOL nmos -1232 -112 R0
SYMATTR InstName M6
SYMATTR SpiceModel ""
SYMATTR Value NMOS
SYMATTR Value2 l=0.6u w=1u
SYMBOL voltage -2080 96 R0
WINDOW 123 0 0 Left 2
WINDOW 39 0 0 Left 2
WINDOW 3 12 101 Left 2
WINDOW 0 39 46 Left 2
SYMATTR Value PULSE(0 3 10n 1n 1n 20n 40n)
SYMATTR InstName V4
SYMBOL voltage -2080 -384 R0
WINDOW 123 0 0 Left 2
WINDOW 39 0 0 Left 2
WINDOW 3 23 102 Left 2
WINDOW 0 38 38 Left 2
SYMATTR Value PULSE(3 0 5n 1n 1n 10n 20n)
SYMATTR InstName V5
TEXT -1088 96 Left 2 !.tran 40n
TEXT -1088 72 Left 2 !.lib cmos.lib
TEXT -2088 -432 Left 2 ;Differential Cascode Voltage Switch Logic
