Version 4
SHEET 1 1292 680
WIRE -2080 -368 -2080 -384
WIRE -1712 -304 -1712 -336
WIRE -1392 -304 -1392 -336
WIRE -2080 -272 -2080 -288
WIRE -1568 -256 -1648 -256
WIRE -1456 -256 -1520 -256
WIRE -2080 -224 -2080 -240
WIRE -1712 -176 -1712 -208
WIRE -1712 -176 -1776 -176
WIRE -1568 -176 -1520 -256
WIRE -1568 -176 -1712 -176
WIRE -1520 -176 -1568 -256
WIRE -1392 -176 -1392 -208
WIRE -1392 -176 -1520 -176
WIRE -1344 -176 -1392 -176
WIRE -2080 -128 -2080 -144
WIRE -1712 -128 -1712 -176
WIRE -1392 -96 -1392 -176
WIRE -1392 -96 -1456 -96
WIRE -1328 -96 -1392 -96
WIRE -1696 -80 -1712 -80
WIRE -1456 -80 -1456 -96
WIRE -1328 -80 -1328 -96
WIRE -1696 -64 -1696 -80
WIRE -2080 -32 -2080 -48
WIRE -1440 -32 -1456 -32
WIRE -1312 -32 -1328 -32
WIRE -1104 -32 -1104 -64
WIRE -1440 -16 -1440 -32
WIRE -1312 -16 -1312 -32
WIRE -1216 -16 -1216 -64
WIRE -1168 -16 -1168 -64
WIRE -1712 0 -1712 -32
WIRE -1456 32 -1456 16
WIRE -1392 32 -1456 32
WIRE -1328 32 -1328 16
WIRE -1328 32 -1392 32
WIRE -1696 48 -1712 48
WIRE -2080 64 -2080 48
WIRE -1696 64 -1696 48
WIRE -1216 80 -1216 48
WIRE -1168 80 -1168 48
WIRE -1104 80 -1104 48
WIRE -2080 112 -2080 96
WIRE -1712 144 -1712 96
WIRE -1392 144 -1392 32
WIRE -2080 208 -2080 192
FLAG -2080 64 0
FLAG -1104 -64 VDD
FLAG -1104 80 0
FLAG -2080 -128 0
FLAG -1216 80 0
FLAG -1168 80 0
FLAG -1168 -64 F
FLAG -1216 -64 !F
FLAG -1392 144 0
FLAG -1712 144 0
FLAG -1392 -336 VDD
FLAG -1712 -336 VDD
FLAG -1776 -176 F
FLAG -1344 -176 !F
FLAG -1776 -80 A
FLAG -1520 -32 !A
FLAG -1776 48 B
FLAG -1392 -32 !B
FLAG -1312 -16 0
FLAG -1440 -16 0
FLAG -1696 -64 0
FLAG -1696 64 0
FLAG -1392 -256 VDD
FLAG -1712 -256 VDD
FLAG -2080 -240 !A
FLAG -2080 -48 B
FLAG -2080 208 0
FLAG -2080 96 !B
FLAG -2080 -272 0
FLAG -2080 -384 A
SYMBOL voltage -2080 -48 R0
WINDOW 123 0 0 Left 2
WINDOW 39 0 0 Left 2
WINDOW 3 12 101 Left 2
WINDOW 0 39 46 Left 2
SYMATTR Value PULSE(3 0 10n 1n 1n 20n 40n)
SYMATTR InstName V3
SYMBOL voltage -1104 -48 R0
WINDOW 123 0 0 Left 2
WINDOW 39 0 0 Left 2
SYMATTR InstName V1
SYMATTR Value 3V
SYMBOL voltage -2080 -240 R0
WINDOW 123 0 0 Left 2
WINDOW 39 0 0 Left 2
WINDOW 3 23 102 Left 2
WINDOW 0 38 38 Left 2
SYMATTR Value PULSE(0 3 5n 1n 1n 10n 20n)
SYMATTR InstName V2
SYMBOL cap -1232 -16 R0
SYMATTR InstName C1
SYMATTR Value 150fF
SYMBOL cap -1184 -16 R0
SYMATTR InstName C2
SYMATTR Value 150fF
SYMBOL pmos -1664 -304 M0
SYMATTR InstName M1
SYMATTR SpiceModel ""
SYMATTR Value PMOS
SYMATTR Value2 l=0.6u w=2u
SYMBOL pmos -1440 -304 R0
SYMATTR InstName M2
SYMATTR SpiceModel ""
SYMATTR Value PMOS
SYMATTR Value2 l=0.6u w=2u
SYMBOL nmos -1760 -128 R0
SYMATTR InstName M3
SYMATTR Value NMOS
SYMATTR Value2 l=0.6u w=1u
SYMBOL nmos -1760 0 R0
SYMATTR InstName M4
SYMATTR Value NMOS
SYMATTR Value2 l=0.6u w=1u
SYMBOL nmos -1504 -80 R0
SYMATTR InstName M5
SYMATTR Value NMOS
SYMATTR Value2 l=0.6u w=1u
SYMBOL nmos -1376 -80 R0
SYMATTR InstName M6
SYMATTR Value NMOS
SYMATTR Value2 l=0.6u w=1u
SYMBOL voltage -2080 96 R0
WINDOW 123 0 0 Left 2
WINDOW 39 0 0 Left 2
WINDOW 3 12 101 Left 2
WINDOW 0 39 46 Left 2
SYMATTR Value PULSE(0 3 10n 1n 1n 20n 40n)
SYMATTR InstName V4
SYMBOL voltage -2080 -384 R0
WINDOW 123 0 0 Left 2
WINDOW 39 0 0 Left 2
WINDOW 3 23 102 Left 2
WINDOW 0 38 38 Left 2
SYMATTR Value PULSE(3 0 5n 1n 1n 10n 20n)
SYMATTR InstName V5
TEXT -1216 160 Left 2 !.tran 100n
TEXT -1216 136 Left 2 !.lib cmos.lib
TEXT -2088 -432 Left 2 ;Differential Cascode Voltage Switch Logic
