Version 4
SHEET 1 1292 680
WIRE -1728 -256 -1792 -256
WIRE -1648 -256 -1680 -256
WIRE -1616 -256 -1648 -256
WIRE -1536 -256 -1568 -256
WIRE -1376 -256 -1408 -256
WIRE -1232 -256 -1280 -256
WIRE -1376 -224 -1408 -224
WIRE -1248 -224 -1280 -224
WIRE -1792 -208 -1792 -256
WIRE -1648 -208 -1648 -256
WIRE -1536 -208 -1648 -208
WIRE -1232 -176 -1232 -256
WIRE -1200 -176 -1232 -176
WIRE -1072 -176 -1104 -176
WIRE -992 -176 -1072 -176
WIRE -1376 -160 -1408 -160
WIRE -1248 -144 -1248 -224
WIRE -1200 -144 -1248 -144
WIRE -1072 -144 -1104 -144
WIRE -1056 -144 -1072 -144
WIRE -1376 -128 -1408 -128
WIRE -1792 -96 -1792 -128
WIRE -1056 -96 -1056 -144
WIRE -992 -96 -992 -176
WIRE -1200 -80 -1248 -80
WIRE -1728 -48 -1792 -48
WIRE -1648 -48 -1680 -48
WIRE -1616 -48 -1648 -48
WIRE -1536 -48 -1568 -48
WIRE -1200 -48 -1232 -48
WIRE -1376 -32 -1408 -32
WIRE -1248 -32 -1248 -80
WIRE -1248 -32 -1280 -32
WIRE -1648 0 -1648 -48
WIRE -1536 0 -1648 0
WIRE -1376 0 -1408 0
WIRE -1232 0 -1232 -48
WIRE -1232 0 -1280 0
WIRE -1056 0 -1056 -32
WIRE -992 0 -992 -32
WIRE -1792 16 -1792 -48
WIRE -1376 64 -1408 64
WIRE -1376 96 -1408 96
WIRE -1792 128 -1792 96
WIRE -1728 160 -1792 160
WIRE -1648 160 -1680 160
WIRE -1616 160 -1648 160
WIRE -1536 160 -1568 160
WIRE -1792 208 -1792 160
WIRE -1648 208 -1648 160
WIRE -1536 208 -1648 208
WIRE -1264 288 -1312 288
WIRE -1792 320 -1792 288
WIRE -1312 320 -1312 288
WIRE -1728 352 -1792 352
WIRE -1648 352 -1680 352
WIRE -1616 352 -1648 352
WIRE -1536 352 -1568 352
WIRE -1792 400 -1792 352
WIRE -1648 400 -1648 352
WIRE -1536 400 -1648 400
WIRE -1312 416 -1312 400
WIRE -1792 512 -1792 480
FLAG -1792 128 0
FLAG -1264 288 $G_VDD
FLAG -1312 416 0
FLAG -1792 -96 0
FLAG -1536 -208 A
FLAG -1536 -256 !A
FLAG -1536 0 B
FLAG -1536 -48 !B
FLAG -1056 0 0
FLAG -992 0 0
FLAG -1072 -176 X
FLAG -1072 -144 !X
FLAG -1792 320 0
FLAG -1536 208 C
FLAG -1536 160 !C
FLAG -1408 -256 A
FLAG -1408 -224 !A
FLAG -1408 -160 B
FLAG -1408 -128 !B
FLAG -1408 64 D
FLAG -1408 96 !D
FLAG -1408 -32 C
FLAG -1408 0 !C
FLAG -1792 512 0
FLAG -1536 400 D
FLAG -1536 352 !D
SYMBOL voltage -1792 0 R0
WINDOW 123 0 0 Left 2
WINDOW 39 0 0 Left 2
WINDOW 3 48 54 Left 2
WINDOW 0 6 1 Left 2
SYMATTR Value PULSE(3.3 0 1u 0.01u 0.01u 2u 4u)
SYMATTR InstName VB
SYMBOL voltage -1312 304 R0
WINDOW 123 0 0 Left 2
WINDOW 39 0 0 Left 2
SYMATTR InstName VDD
SYMATTR Value 3.3V
SYMBOL voltage -1792 -224 R0
WINDOW 123 0 0 Left 2
WINDOW 39 0 0 Left 2
WINDOW 3 23 102 Left 2
WINDOW 0 16 11 Left 2
SYMATTR Value PULSE(3.3 0 1u 0.01u 0.01u 1u 2u)
SYMATTR InstName VA
SYMBOL inverter -1600 -256 R0
SYMATTR InstName X1
SYMBOL inverter -1712 -256 R0
SYMATTR InstName X2
SYMBOL inverter -1600 -48 R0
SYMATTR InstName X3
SYMBOL inverter -1712 -48 R0
SYMATTR InstName X4
SYMBOL cpl_and -1312 -224 R0
SYMATTR InstName X5
SYMBOL cap -1072 -96 R0
SYMATTR InstName C1
SYMATTR Value 50fF
SYMBOL cap -1008 -96 R0
SYMATTR InstName C2
SYMATTR Value 50fF
SYMBOL cpl_and -1312 0 R0
SYMATTR InstName X7
SYMBOL voltage -1792 192 R0
WINDOW 123 0 0 Left 2
WINDOW 39 0 0 Left 2
WINDOW 3 23 102 Left 2
WINDOW 0 16 11 Left 2
SYMATTR Value PULSE(3.3 0 1u 0.01u 0.01u 4u 8u)
SYMATTR InstName VC
SYMBOL inverter -1600 160 R0
SYMATTR InstName X8
SYMBOL inverter -1712 160 R0
SYMATTR InstName X9
SYMBOL cpl_or -1136 -144 R0
SYMATTR InstName X6
SYMBOL voltage -1792 384 R0
WINDOW 123 0 0 Left 2
WINDOW 39 0 0 Left 2
WINDOW 3 23 102 Left 2
WINDOW 0 16 11 Left 2
SYMATTR Value PULSE(3.3 0 1u 0.01u 0.01u 1u 2u)
SYMATTR InstName VD
SYMBOL inverter -1600 352 R0
SYMATTR InstName X10
SYMBOL inverter -1712 352 R0
SYMATTR InstName X11
TEXT -1080 400 Left 0 !.tran 20u
TEXT -1080 376 Left 0 !.lib cmos.lib
TEXT -1344 -336 Left 0 ;X = A.B + C.D
