Version 4
SHEET 1 1292 680
WIRE -1728 -608 -1808 -608
WIRE -1808 -592 -1808 -608
WIRE -1328 -576 -1456 -576
WIRE -1184 -576 -1232 -576
WIRE -1808 -528 -1808 -544
WIRE -1728 -528 -1808 -528
WIRE -1184 -528 -1184 -576
WIRE -1104 -528 -1184 -528
WIRE -1808 -512 -1808 -528
WIRE -1424 -496 -1456 -496
WIRE -1184 -496 -1184 -528
WIRE -1184 -496 -1328 -496
WIRE -1808 -448 -1808 -464
WIRE -1376 -400 -1376 -432
WIRE -1280 -400 -1280 -512
WIRE -1808 -352 -1808 -368
WIRE -1728 -320 -1808 -320
WIRE -1328 -320 -1456 -320
WIRE -1184 -320 -1232 -320
WIRE -1808 -304 -1808 -320
WIRE -1184 -272 -1184 -320
WIRE -1104 -272 -1184 -272
WIRE -1808 -240 -1808 -256
WIRE -1728 -240 -1808 -240
WIRE -1424 -240 -1456 -240
WIRE -1184 -240 -1184 -272
WIRE -1184 -240 -1328 -240
WIRE -1808 -224 -1808 -240
WIRE -800 -192 -800 -224
WIRE -1808 -160 -1808 -176
WIRE -1376 -144 -1376 -176
WIRE -1280 -144 -1280 -256
WIRE -1008 -96 -1008 -128
WIRE -928 -96 -928 -128
WIRE -800 -80 -800 -112
WIRE -1808 -64 -1808 -80
FLAG -800 -224 $G_VDD
FLAG -800 -80 0
FLAG -1808 -352 0
FLAG -1008 -96 0
FLAG -928 -96 0
FLAG -1376 -400 B
IOPIN -1376 -400 In
FLAG -1280 -400 !B
IOPIN -1280 -400 In
FLAG -1456 -496 A
IOPIN -1456 -496 In
FLAG -1456 -576 B
IOPIN -1456 -576 In
FLAG -1376 -496 0
FLAG -1280 -576 0
FLAG -1728 -608 A
FLAG -1728 -528 !A
FLAG -1808 -64 0
FLAG -1728 -320 B
FLAG -1728 -240 !B
FLAG -1376 -144 B
IOPIN -1376 -144 In
FLAG -1280 -144 !B
IOPIN -1280 -144 In
FLAG -1456 -240 !A
IOPIN -1456 -240 In
FLAG -1456 -320 !B
IOPIN -1456 -320 In
FLAG -1376 -240 0
FLAG -1280 -320 0
FLAG -1104 -528 F
FLAG -1104 -272 !F
FLAG -1008 -192 F
FLAG -928 -192 !F
SYMBOL voltage -800 -208 R0
WINDOW 123 0 0 Left 2
WINDOW 39 0 0 Left 2
SYMATTR InstName VDD
SYMATTR Value 3.3V
SYMBOL voltage -1808 -464 R0
WINDOW 123 0 0 Left 2
WINDOW 39 0 0 Left 2
WINDOW 3 41 51 Left 2
WINDOW 0 40 25 Left 2
SYMATTR Value PULSE(0 3.3 5n 1n 1n 10n 20n)
SYMATTR InstName VA
SYMBOL inverter -1808 -560 R270
SYMATTR InstName X1
SYMBOL inverter -1808 -480 R270
SYMATTR InstName X2
SYMBOL cap -1024 -192 R0
SYMATTR InstName C1
SYMATTR Value 50fF
SYMBOL cap -944 -192 R0
SYMATTR InstName C2
SYMATTR Value 50fF
SYMBOL nmos -1424 -448 R270
SYMATTR InstName M1
SYMATTR Value2 l=0.6u w=1.5u
SYMATTR Value NMOS
SYMBOL nmos -1328 -528 R270
SYMATTR InstName M2
SYMATTR Value2 l=0.6u w=1.5u
SYMATTR Value NMOS
SYMBOL voltage -1808 -176 R0
WINDOW 123 0 0 Left 2
WINDOW 39 0 0 Left 2
WINDOW 3 41 51 Left 2
WINDOW 0 40 25 Left 2
SYMATTR Value PULSE(0 3.3 10n 1n 1n 20n 40n)
SYMATTR InstName VB
SYMBOL inverter -1808 -272 R270
SYMATTR InstName X5
SYMBOL inverter -1808 -192 R270
SYMATTR InstName X6
SYMBOL nmos -1424 -192 R270
SYMATTR InstName M3
SYMATTR Value2 l=0.6u w=1.5u
SYMATTR Value NMOS
SYMBOL nmos -1328 -272 R270
SYMATTR InstName M4
SYMATTR Value2 l=0.6u w=1.5u
SYMATTR Value NMOS
TEXT -1624 -56 Left 2 !.tran 40n
TEXT -1624 -80 Left 2 !.lib cmos.lib
TEXT -952 -576 Left 3 ;CPL AND/NAND Gate
