Version 4
SHEET 1 1292 680
WIRE -1328 -112 -1328 -144
WIRE -1040 -112 -1040 -144
WIRE -1392 -64 -1424 -64
WIRE -1104 -64 -1120 -64
WIRE -1248 -16 -1248 -144
WIRE -960 -16 -960 -144
WIRE -1312 32 -1424 32
WIRE -1024 32 -1120 32
WIRE -1328 128 -1328 -16
WIRE -1296 128 -1328 128
WIRE -1248 128 -1248 80
WIRE -1248 128 -1296 128
WIRE -1040 128 -1040 -16
WIRE -992 128 -1040 128
WIRE -960 128 -960 80
WIRE -960 128 -992 128
WIRE -1408 176 -1440 176
WIRE -1296 176 -1296 128
WIRE -1296 176 -1360 176
WIRE -992 176 -992 128
WIRE -928 176 -992 176
WIRE -848 176 -880 176
FLAG -1424 -64 !B
IOPIN -1424 -64 In
FLAG -1424 32 B
IOPIN -1424 32 In
FLAG -1328 -144 A
IOPIN -1328 -144 In
FLAG -1248 -144 !A
IOPIN -1248 -144 In
FLAG -1328 -64 0
FLAG -1040 -144 !A
IOPIN -1040 -144 In
FLAG -960 -144 A
IOPIN -960 -144 In
FLAG -1120 -64 !B
IOPIN -1120 -64 In
FLAG -1120 32 B
IOPIN -1120 32 In
FLAG -848 176 F
IOPIN -848 176 Out
FLAG -1440 176 !F
IOPIN -1440 176 Out
FLAG -1248 32 0
FLAG -1040 -64 0
FLAG -960 32 0
SYMBOL nmos -1376 -112 R0
SYMATTR InstName M3
SYMATTR Value2 l=0.6u w=1.5u
SYMATTR SpiceModel ""
SYMATTR Value NMOS
SYMBOL inverter -912 176 R0
SYMATTR InstName X1
SYMBOL inverter -1376 176 R180
SYMATTR InstName X2
SYMBOL nmos -1296 -16 R0
SYMATTR InstName M1
SYMATTR Value2 l=0.6u w=1.5u
SYMATTR SpiceModel ""
SYMATTR Value NMOS
SYMBOL nmos -1088 -112 R0
SYMATTR InstName M2
SYMATTR Value2 l=0.6u w=1.5u
SYMATTR SpiceModel ""
SYMATTR Value NMOS
SYMBOL nmos -1008 -16 R0
SYMATTR InstName M4
SYMATTR Value2 l=0.6u w=1.5u
SYMATTR SpiceModel ""
SYMATTR Value NMOS
TEXT -1264 -240 Left 0 ;CPL 2-Input XOR/XNOR
TEXT -920 128 Left 0 ;F = XOR(A,B)
TEXT -1472 128 Left 0 ;!F = XNOR(A,B)
TEXT -1320 -88 Left 0 ;5
TEXT -1240 8 Left 0 ;5
TEXT -1032 -88 Left 0 ;5
TEXT -952 8 Left 0 ;5
