Version 4
SHEET 1 1292 680
WIRE -1728 -256 -1792 -256
WIRE -1648 -256 -1680 -256
WIRE -1616 -256 -1648 -256
WIRE -1536 -256 -1568 -256
WIRE -1792 -208 -1792 -256
WIRE -1648 -208 -1648 -256
WIRE -1536 -208 -1648 -208
WIRE -1264 -176 -1296 -176
WIRE -1136 -176 -1168 -176
WIRE -1264 -160 -1296 -160
WIRE -1136 -160 -1168 -160
WIRE -1264 -128 -1296 -128
WIRE -1264 -112 -1296 -112
WIRE -1792 -96 -1792 -128
WIRE -1264 -80 -1296 -80
WIRE -1264 -64 -1296 -64
WIRE -1728 -48 -1792 -48
WIRE -1648 -48 -1680 -48
WIRE -1616 -48 -1648 -48
WIRE -1536 -48 -1568 -48
WIRE -1648 0 -1648 -48
WIRE -1536 0 -1648 0
WIRE -1792 16 -1792 -48
WIRE -1792 128 -1792 96
WIRE -1728 160 -1792 160
WIRE -1648 160 -1680 160
WIRE -1616 160 -1648 160
WIRE -1536 160 -1568 160
WIRE -1392 160 -1440 160
WIRE -1440 192 -1440 160
WIRE -1792 208 -1792 160
WIRE -1648 208 -1648 160
WIRE -1536 208 -1648 208
WIRE -1056 208 -1072 208
WIRE -992 208 -1008 208
WIRE -1056 224 -1056 208
WIRE -992 224 -992 208
WIRE -1792 320 -1792 288
WIRE -1440 320 -1440 272
WIRE -1056 320 -1056 288
WIRE -992 320 -992 288
FLAG -1792 128 0
FLAG -1392 160 $G_VDD
FLAG -1440 320 0
FLAG -1792 -96 0
FLAG -1536 -208 A
FLAG -1536 -256 !A
FLAG -1536 0 B
FLAG -1536 -48 !B
FLAG -1056 320 0
FLAG -992 320 0
FLAG -1792 320 0
FLAG -1536 208 C
FLAG -1536 160 !C
FLAG -1296 -176 A
FLAG -1296 -160 !A
FLAG -1296 -128 B
FLAG -1296 -112 !B
FLAG -1296 -80 C
FLAG -1296 -64 !C
FLAG -1136 -176 F
FLAG -1072 208 F
FLAG -1136 -160 !F
FLAG -1008 208 !F
SYMBOL voltage -1792 0 R0
WINDOW 123 0 0 Left 2
WINDOW 39 0 0 Left 2
WINDOW 3 48 54 Left 2
WINDOW 0 6 1 Left 2
SYMATTR Value PULSE(3.3 0 14n 1n 1n 18n 40n)
SYMATTR InstName VB
SYMBOL voltage -1440 176 R0
WINDOW 123 0 0 Left 2
WINDOW 39 0 0 Left 2
SYMATTR InstName VDD
SYMATTR Value 3.3V
SYMBOL voltage -1792 -224 R0
WINDOW 123 0 0 Left 2
WINDOW 39 0 0 Left 2
WINDOW 3 23 102 Left 2
WINDOW 0 16 11 Left 2
SYMATTR Value PULSE(3.3 0 5n 1n 1n 8n 18n)
SYMATTR InstName VA
SYMBOL inverter -1600 -256 R0
SYMATTR InstName X1
SYMBOL inverter -1712 -256 R0
SYMATTR InstName X2
SYMBOL inverter -1600 -48 R0
SYMATTR InstName X3
SYMBOL inverter -1712 -48 R0
SYMATTR InstName X4
SYMBOL cap -1072 224 R0
SYMATTR InstName C1
SYMATTR Value 50fF
SYMBOL cap -1008 224 R0
SYMATTR InstName C2
SYMATTR Value 50fF
SYMBOL voltage -1792 192 R0
WINDOW 123 0 0 Left 2
WINDOW 39 0 0 Left 2
WINDOW 3 23 102 Left 2
WINDOW 0 16 11 Left 2
SYMATTR Value PULSE(3.3 0 15n 1n 1n 38n 80n)
SYMATTR InstName VC
SYMBOL inverter -1600 160 R0
SYMATTR InstName X8
SYMBOL inverter -1712 160 R0
SYMATTR InstName X9
SYMBOL cpl_and3 -1200 -144 R0
SYMATTR InstName X5
TEXT -1304 320 Left 2 !.tran 200n
TEXT -1304 296 Left 2 !.lib mhp_ns5.md
TEXT -1344 -336 Left 2 ;3-Input CPL And Gate Test-Bench
