Version 4
SHEET 1 1292 680
WIRE -1712 -512 -1760 -512
WIRE -1648 -512 -1664 -512
WIRE -1632 -512 -1648 -512
WIRE -1552 -512 -1584 -512
WIRE -1648 -464 -1648 -512
WIRE -1552 -464 -1648 -464
WIRE -1760 -448 -1760 -512
WIRE -1360 -384 -1360 -432
WIRE -1200 -384 -1200 -432
WIRE -1760 -352 -1760 -368
WIRE -1392 -352 -1408 -352
WIRE -1312 -352 -1328 -352
WIRE -1232 -352 -1248 -352
WIRE -1152 -352 -1168 -352
WIRE -1680 -304 -1760 -304
WIRE -1536 -304 -1632 -304
WIRE -1360 -272 -1360 -320
WIRE -1280 -272 -1360 -272
WIRE -1200 -272 -1200 -320
WIRE -1200 -272 -1280 -272
WIRE -1760 -256 -1760 -304
WIRE -1280 -224 -1280 -272
WIRE -1760 -160 -1760 -176
WIRE -1680 -128 -1760 -128
WIRE -1536 -128 -1632 -128
WIRE -944 -128 -944 -160
WIRE -1760 -96 -1760 -128
WIRE -1040 -96 -1040 -144
WIRE -1040 -16 -1040 -32
WIRE -944 -16 -944 -48
WIRE -1760 0 -1760 -16
FLAG -1760 0 0
FLAG -1760 -160 0
FLAG -1536 -128 B
FLAG -1280 -224 F
FLAG -1040 -16 0
FLAG -1360 -432 A
FLAG -1200 -432 B
FLAG -1312 -352 S
FLAG -944 -160 $G_VDD
FLAG -944 -16 0
FLAG -1552 -512 S
FLAG -1760 -352 0
FLAG -1552 -464 !S
FLAG -1536 -304 A
FLAG -1152 -352 !S
FLAG -1408 -352 !S
FLAG -1248 -352 S
FLAG -1040 -144 F
SYMBOL cap -1056 -96 R0
SYMATTR InstName C1
SYMATTR Value 50fF
SYMBOL voltage -1760 -272 R0
WINDOW 123 0 0 Left 0
WINDOW 39 0 0 Left 0
WINDOW 3 29 89 Left 0
SYMATTR Value SINE(1.6 1.6 1MEG 0 0 0)
SYMATTR InstName VA
SYMBOL voltage -1760 -112 R0
WINDOW 123 0 0 Left 0
WINDOW 39 0 0 Left 0
WINDOW 3 28 92 Left 0
SYMATTR Value SINE(1.6 1.6 5MEG 0 0 0)
SYMATTR InstName VB
SYMBOL voltage -944 -144 R0
WINDOW 123 0 0 Left 0
WINDOW 39 0 0 Left 0
SYMATTR InstName VDD
SYMATTR Value 3.3V
SYMBOL voltage -1760 -464 R0
WINDOW 123 0 0 Left 0
WINDOW 39 0 0 Left 0
WINDOW 3 27 92 Left 0
SYMATTR Value PWL(0 0 5u 0 5.1u 3.3)
SYMATTR InstName VS
SYMBOL inverter -1696 -512 R0
SYMATTR InstName X1
SYMBOL inverter -1616 -512 R0
SYMATTR InstName X2
SYMBOL inverter -1664 -128 R0
SYMATTR InstName X3
SYMBOL inverter -1664 -304 R0
SYMATTR InstName X4
SYMBOL tg -1344 -368 M90
SYMATTR InstName X5
SYMBOL tg -1184 -368 M90
SYMATTR InstName X6
TEXT -1512 16 Left 0 !.tran 10u
TEXT -1512 -16 Left 0 !.lib mhp_ns5.md
TEXT -1328 -560 Left 0 ;Multiplexer
