Version 4
SHEET 1 1292 680
WIRE -1712 -512 -1760 -512
WIRE -1648 -512 -1664 -512
WIRE -1632 -512 -1648 -512
WIRE -1552 -512 -1584 -512
WIRE -1648 -464 -1648 -512
WIRE -1552 -464 -1648 -464
WIRE -1760 -448 -1760 -512
WIRE -1280 -416 -1424 -416
WIRE -1120 -416 -1184 -416
WIRE -1120 -368 -1120 -416
WIRE -1072 -368 -1120 -368
WIRE -1760 -352 -1760 -368
WIRE -1376 -304 -1424 -304
WIRE -1120 -304 -1120 -368
WIRE -1120 -304 -1280 -304
WIRE -1680 -288 -1760 -288
WIRE -1552 -288 -1632 -288
WIRE -1760 -256 -1760 -288
WIRE -1328 -208 -1328 -240
WIRE -1232 -208 -1232 -352
WIRE -960 -176 -960 -208
WIRE -1760 -160 -1760 -176
WIRE -1056 -144 -1056 -192
WIRE -1680 -112 -1760 -112
WIRE -1552 -112 -1632 -112
WIRE -1760 -96 -1760 -112
WIRE -1056 -32 -1056 -80
WIRE -960 -32 -960 -96
WIRE -1760 0 -1760 -16
FLAG -1760 0 0
FLAG -1760 -160 0
FLAG -1552 -112 B
FLAG -1056 -32 0
FLAG -960 -208 $G_VDD
FLAG -960 -32 0
FLAG -1552 -512 S
FLAG -1760 -352 0
FLAG -1552 -464 !S
FLAG -1552 -288 A
FLAG -1072 -368 F
FLAG -1056 -192 F
FLAG -1424 -304 A
FLAG -1424 -416 B
FLAG -1328 -208 S
FLAG -1232 -208 !S
FLAG -1328 -304 0
FLAG -1232 -416 0
SYMBOL cap -1072 -144 R0
SYMATTR InstName C1
SYMATTR Value 50fF
SYMBOL voltage -960 -192 R0
WINDOW 123 0 0 Left 2
WINDOW 39 0 0 Left 2
SYMATTR InstName VDD
SYMATTR Value 3.3V
SYMBOL voltage -1760 -464 R0
WINDOW 123 0 0 Left 2
WINDOW 39 0 0 Left 2
WINDOW 3 27 92 Left 2
SYMATTR Value PWL(0 3.3 5u 3.3 5.1u 0)
SYMATTR InstName VS
SYMBOL inverter -1696 -512 R0
SYMATTR InstName X1
SYMBOL inverter -1616 -512 R0
SYMATTR InstName X2
SYMBOL inverter -1664 -112 R0
SYMATTR InstName X3
SYMBOL inverter -1664 -288 R0
SYMATTR InstName X4
SYMBOL nmos -1376 -256 R270
SYMATTR InstName M1
SYMATTR Value2 l=0.6u w=1.5u
SYMATTR Value NMOS
SYMBOL nmos -1280 -368 R270
SYMATTR InstName M2
SYMATTR Value2 l=0.6u w=1.5u
SYMATTR Value NMOS
SYMBOL Misc\\signal -1760 -272 R0
SYMATTR InstName V1
SYMATTR Value SINE(1.6 1.6 1MEG 0 0 0)
SYMBOL Misc\\signal -1760 -112 R0
SYMATTR InstName V2
SYMATTR Value SINE(1.6 1.6 5MEG 0 0 0)
TEXT -1352 -32 Left 2 !.tran 10u
TEXT -1352 -56 Left 2 !.lib cmos.lib
TEXT -1328 -560 Left 3 ;Multiplexer
TEXT -1344 -240 VLeft 0 ;5
TEXT -1248 -352 VLeft 0 ;5
TEXT -1328 -480 Left 3 ;F = A.S + B.!S
