Version 4
SHEET 1 1292 680
WIRE -1712 -512 -1792 -512
WIRE -1792 -496 -1792 -512
WIRE -1008 -480 -1056 -480
WIRE -1056 -448 -1056 -480
WIRE -1792 -416 -1792 -448
WIRE -1408 -352 -1408 -368
WIRE -1056 -336 -1056 -368
WIRE -1792 -320 -1792 -336
WIRE -1712 -288 -1792 -288
WIRE -1312 -288 -1360 -288
WIRE -1216 -288 -1312 -288
WIRE -1184 -288 -1216 -288
WIRE -1792 -272 -1792 -288
WIRE -1216 -256 -1216 -288
WIRE -1408 -224 -1408 -240
WIRE -1792 -192 -1792 -224
WIRE -1712 -192 -1792 -192
WIRE -1792 -176 -1792 -192
WIRE -1312 -160 -1312 -288
WIRE -1312 -160 -1360 -160
WIRE -1216 -160 -1216 -192
WIRE -1792 -112 -1792 -128
WIRE -1792 -16 -1792 -32
FLAG -1056 -336 0
FLAG -1216 -160 0
FLAG -1408 -288 0
FLAG -1184 -288 OUT
FLAG -1008 -480 $G_VDD
FLAG -1792 -320 0
FLAG -1712 -512 A
FLAG -1792 -16 0
FLAG -1712 -192 B
FLAG -1408 -368 B
FLAG -1456 -288 A
FLAG -1712 -288 !B
FLAG -1408 -160 0
FLAG -1408 -240 !B
FLAG -1456 -160 0
SYMBOL voltage -1056 -464 R0
WINDOW 123 0 0 Left 2
WINDOW 39 0 0 Left 2
SYMATTR InstName V1
SYMATTR Value 3.3V
SYMBOL cap -1232 -256 R0
SYMATTR InstName CL
SYMATTR Value 10fF
SYMBOL nmos -1360 -336 R90
SYMATTR InstName M1
SYMATTR Value2 l=0.6U w=0.9U ad=7.065P as=4.86P pd=13.5U ps=7.2U
SYMATTR Value N
SYMBOL voltage -1792 -432 R0
WINDOW 123 0 0 Left 2
WINDOW 39 0 0 Left 2
WINDOW 3 41 51 Left 2
WINDOW 0 40 25 Left 2
SYMATTR Value PULSE(0 3.3 5n 1n 1n 10n 20n)
SYMATTR InstName VA1
SYMBOL voltage -1792 -128 R0
WINDOW 123 0 0 Left 2
WINDOW 39 0 0 Left 2
WINDOW 3 41 51 Left 2
WINDOW 0 40 25 Left 2
SYMATTR Value PULSE(0 3.3 10n 1n 1n 20n 40n)
SYMATTR InstName VB1
SYMBOL buf -1792 -464 R270
SYMATTR InstName X2
SYMBOL buf -1792 -144 R270
SYMATTR InstName X1
SYMBOL inverter -1792 -240 R270
SYMATTR InstName X3
SYMBOL nmos -1360 -208 R90
SYMATTR InstName M2
SYMATTR Value2 l=0.6U w=0.9U ad=7.065P as=4.86P pd=13.5U ps=7.2U
SYMATTR Value N
TEXT -1080 -56 Left 2 !.tran 40n
TEXT -1080 -80 Left 2 !.lib cmos.lib
