Version 4
SHEET 1 1292 680
WIRE -1712 -512 -1792 -512
WIRE -1792 -496 -1792 -512
WIRE -1792 -416 -1792 -448
WIRE -1152 -368 -1184 -368
WIRE -944 -368 -1152 -368
WIRE -896 -368 -944 -368
WIRE -1184 -336 -1184 -368
WIRE -944 -336 -944 -368
WIRE -1792 -320 -1792 -336
WIRE -1712 -288 -1792 -288
WIRE -1424 -288 -1424 -304
WIRE -1248 -288 -1264 -288
WIRE -1152 -288 -1152 -368
WIRE -1152 -288 -1184 -288
WIRE -1792 -272 -1792 -288
WIRE -1328 -224 -1376 -224
WIRE -1264 -224 -1264 -288
WIRE -1264 -224 -1328 -224
WIRE -1184 -224 -1184 -240
WIRE -1104 -224 -1184 -224
WIRE -1072 -224 -1104 -224
WIRE -944 -224 -944 -256
WIRE -1184 -208 -1184 -224
WIRE -1792 -192 -1792 -224
WIRE -1712 -192 -1792 -192
WIRE -1792 -176 -1792 -192
WIRE -1104 -176 -1104 -224
WIRE -1424 -160 -1424 -176
WIRE -1264 -160 -1264 -224
WIRE -1248 -160 -1264 -160
WIRE -1168 -160 -1184 -160
WIRE -1792 -112 -1792 -128
WIRE -1168 -112 -1168 -160
WIRE -1168 -112 -1184 -112
WIRE -1328 -96 -1328 -224
WIRE -1328 -96 -1376 -96
WIRE -1184 -64 -1184 -112
WIRE -1104 -64 -1104 -112
WIRE -1792 -16 -1792 -32
FLAG -944 -224 0
FLAG -1104 -64 0
FLAG -1424 -224 0
FLAG -1184 -64 0
FLAG -1072 -224 OUT
FLAG -1328 -224 X
FLAG -896 -368 $G_VDD
FLAG -1792 -320 0
FLAG -1712 -512 A
FLAG -1792 -16 0
FLAG -1712 -192 B
FLAG -1424 -304 B
FLAG -1472 -224 A
FLAG -1712 -288 !B
FLAG -1424 -96 0
FLAG -1424 -176 !B
FLAG -1472 -96 0
SYMBOL voltage -944 -352 R0
WINDOW 123 0 0 Left 2
WINDOW 39 0 0 Left 2
SYMATTR InstName V1
SYMATTR Value 3.3V
SYMBOL cap -1120 -176 R0
SYMATTR InstName CL
SYMATTR Value 50fF
SYMBOL nmos -1376 -272 R90
SYMATTR InstName M1
SYMATTR Value2 l=0.6u w=1.5u
SYMATTR Value NMOS
SYMBOL nmos -1232 -208 R0
SYMATTR InstName M2
SYMATTR Value2 l=0.6u w=3u
SYMATTR Value NMOS
SYMBOL pmos -1232 -336 R0
SYMATTR InstName M3
SYMATTR Value2 l=0.6u w=6u
SYMATTR SpiceModel ""
SYMATTR Value PMOS
SYMBOL voltage -1792 -432 R0
WINDOW 123 0 0 Left 2
WINDOW 39 0 0 Left 2
WINDOW 3 41 51 Left 2
WINDOW 0 40 25 Left 2
SYMATTR Value PULSE(0 3.3 5n 1n 1n 10n 20n)
SYMATTR InstName VA1
SYMBOL voltage -1792 -128 R0
WINDOW 123 0 0 Left 2
WINDOW 39 0 0 Left 2
WINDOW 3 41 51 Left 2
WINDOW 0 40 25 Left 2
SYMATTR Value PULSE(0 3.3 10n 1n 1n 20n 40n)
SYMATTR InstName VB1
SYMBOL buf -1792 -464 R270
SYMATTR InstName X2
SYMBOL buf -1792 -144 R270
SYMATTR InstName X1
SYMBOL inverter -1792 -240 R270
SYMATTR InstName X3
SYMBOL nmos -1376 -144 R90
SYMATTR InstName M4
SYMATTR Value2 l=0.6u w=1.5u
SYMATTR Value NMOS
TEXT -984 -88 Left 2 !.tran 40n
TEXT -984 -112 Left 2 !.lib cmos.lib
