Version 4
SHEET 1 1292 680
WIRE -1776 -288 -1792 -288
WIRE -1648 -288 -1664 -288
WIRE -1792 -272 -1792 -288
WIRE -1664 -272 -1664 -288
WIRE -1360 -272 -1360 -304
WIRE -1408 -208 -1440 -208
WIRE -1296 -208 -1312 -208
WIRE -1248 -208 -1296 -208
WIRE -1360 -192 -1360 -208
WIRE -1792 -176 -1792 -192
WIRE -1664 -176 -1664 -192
WIRE -1760 -144 -1792 -144
WIRE -1648 -144 -1664 -144
WIRE -1296 -144 -1440 -144
WIRE -1152 -144 -1200 -144
WIRE -1104 -144 -1152 -144
WIRE -1792 -128 -1792 -144
WIRE -1664 -128 -1664 -144
WIRE -1248 -128 -1248 -144
WIRE -1104 -64 -1104 -80
WIRE -1792 -32 -1792 -48
WIRE -1664 -32 -1664 -48
FLAG -1792 -32 0
FLAG -1792 -176 0
FLAG -1664 -32 0
FLAG -1440 -208 A
FLAG -1648 -144 S
FLAG -1296 -208 X
FLAG -1760 -144 Vdd
FLAG -1776 -288 A
FLAG -1360 -304 S
FLAG -1360 -192 0
FLAG -1104 -64 0
FLAG -1248 -128 0
FLAG -1152 -144 Y
FLAG -1440 -144 B
FLAG -1664 -176 0
FLAG -1648 -288 B
SYMBOL voltage -1792 -288 R0
WINDOW 123 0 0 Left 0
WINDOW 39 0 0 Left 0
WINDOW 3 2 -16 Left 0
WINDOW 0 45 52 Left 0
SYMATTR Value PWL(0 3.3 400n 3.3 401n 0)
SYMATTR InstName VA
SYMBOL voltage -1792 -144 R0
WINDOW 123 0 0 Left 0
WINDOW 39 0 0 Left 0
WINDOW 3 -12 57 Left 0
WINDOW 0 36 56 Left 2
SYMATTR Value 3.3V
SYMATTR InstName V1
SYMBOL voltage -1664 -144 R0
WINDOW 123 0 0 Left 0
WINDOW 39 0 0 Left 0
WINDOW 3 38 62 Left 0
WINDOW 0 37 49 Left 0
SYMATTR Value PULSE(0 3.3 10n 1n 1n 400n 1000n 0)
SYMATTR InstName VS
SYMBOL nmos -1312 -256 R90
WINDOW 0 -26 81 VRight 0
WINDOW 3 -16 74 VRight 0
SYMATTR InstName M1
SYMATTR Value NMOS
SYMATTR Value2 l=0.6u w=1.5u
SYMBOL nmos -1200 -192 R90
WINDOW 0 -46 37 VRight 0
WINDOW 3 -38 28 VRight 0
SYMATTR InstName M2
SYMATTR Value NMOS
SYMATTR Value2 l=0.6u w=1.5u
SYMBOL cap -1120 -144 R0
WINDOW 3 28 48 Left 0
SYMATTR Value 50fF
SYMATTR InstName Cload
SYMBOL voltage -1664 -288 R0
WINDOW 123 0 0 Left 0
WINDOW 39 0 0 Left 0
WINDOW 3 0 -17 Left 0
WINDOW 0 45 52 Left 0
SYMATTR Value PWL(0 3.3 300n 3.3 301n 0)
SYMATTR InstName VB
TEXT -1440 -48 Left 0 !.tran 500n
TEXT -1440 -64 Left 0 !.lib cmos.lib
