Version 4
SHEET 1 1292 680
WIRE -1728 -288 -1792 -288
WIRE -1616 -288 -1680 -288
WIRE -1536 -288 -1568 -288
WIRE -1792 -240 -1792 -288
WIRE -1328 -208 -1328 -272
WIRE -1392 -160 -1408 -160
WIRE -1312 -160 -1328 -160
WIRE -1792 -128 -1792 -160
WIRE -1168 -128 -1168 -272
WIRE -1232 -80 -1408 -80
WIRE -1152 -80 -1168 -80
WIRE -1536 -48 -1648 -48
WIRE -1728 0 -1792 0
WIRE -1648 0 -1648 -48
WIRE -1648 0 -1680 0
WIRE -1616 0 -1648 0
WIRE -1536 0 -1568 0
WIRE -1328 16 -1328 -112
WIRE -1248 16 -1328 16
WIRE -1168 16 -1168 -32
WIRE -1168 16 -1248 16
WIRE -1792 64 -1792 0
WIRE -1248 64 -1248 16
WIRE -1056 64 -1056 16
WIRE -976 64 -976 32
WIRE -1792 176 -1792 144
WIRE -1056 176 -1056 128
WIRE -976 176 -976 144
FLAG -1792 176 0
FLAG -976 32 $G_VDD
FLAG -976 176 0
FLAG -1792 -128 0
FLAG -1536 -288 A
FLAG -1536 -48 !B
FLAG -1536 0 B
FLAG -1056 176 0
FLAG -1248 64 F
FLAG -1328 -272 A
FLAG -1408 -160 B
FLAG -1408 -80 !B
FLAG -1312 -160 0
FLAG -1056 16 F
FLAG -1152 -80 0
FLAG -1168 -272 B
SYMBOL voltage -1792 48 R0
WINDOW 123 0 0 Left 0
WINDOW 39 0 0 Left 0
WINDOW 3 12 118 Left 0
WINDOW 0 6 1 Left 0
SYMATTR Value PULSE(3.3 0 10n 1n 1n 20n 40n)
SYMATTR InstName VB
SYMBOL voltage -976 48 R0
WINDOW 123 0 0 Left 0
WINDOW 39 0 0 Left 0
SYMATTR InstName VDD
SYMATTR Value 3.3V
SYMBOL voltage -1792 -256 R0
WINDOW 123 0 0 Left 0
WINDOW 39 0 0 Left 0
WINDOW 3 23 102 Left 0
WINDOW 0 16 11 Left 0
SYMATTR Value PULSE(3.3 0 5n 1n 1n 10n 20n)
SYMATTR InstName VA
SYMBOL inverter -1600 -288 R0
SYMATTR InstName X1
SYMBOL inverter -1712 -288 R0
SYMATTR InstName X2
SYMBOL inverter -1600 0 R0
SYMATTR InstName X3
SYMBOL inverter -1712 0 R0
SYMATTR InstName X4
SYMBOL cap -1072 64 R0
SYMATTR InstName C2
SYMATTR Value 50fF
SYMBOL nmos -1376 -112 M180
SYMATTR InstName M1
SYMATTR Value2 l=0.6u w=0.9u
SYMBOL nmos -1216 -32 M180
SYMATTR InstName M2
SYMATTR Value2 l=0.6u w=0.9u
TEXT -1488 168 Left 0 !.tran 100n
TEXT -1488 144 Left 0 !.lib mhp_ns5.md
