Version 4
SHEET 1 1292 680
WIRE -1216 -384 -1216 -416
WIRE -1264 -320 -1312 -320
WIRE -1120 -320 -1168 -320
WIRE -1312 -240 -1312 -320
WIRE -1312 -240 -1392 -240
WIRE -1120 -240 -1120 -320
WIRE -1040 -240 -1120 -240
WIRE -1312 -160 -1312 -240
WIRE -1264 -160 -1312 -160
WIRE -1120 -160 -1120 -240
WIRE -1120 -160 -1168 -160
WIRE -1216 -64 -1216 -96
FLAG -1216 -320 vdd
FLAG -1216 -64 S
FLAG -1216 -416 !S
FLAG -1392 -240 A
FLAG -1040 -240 B
FLAG -1216 -160 0
SYMBOL tg -1392 -384 R0
SYMATTR InstName X1
SYMBOL nmos -1264 -112 R270
SYMATTR InstName M1
SYMBOL pmos -1168 -368 R90
SYMATTR InstName M2
TEXT -1184 -384 Left 0 ;10
TEXT -1264 -96 Left 0 ;5
