Version 4
SHEET 1 1292 680
WIRE -1856 -656 -1856 -688
WIRE -1856 -544 -1856 -576
WIRE -1664 -544 -1664 -560
WIRE -960 -512 -1008 -512
WIRE -912 -512 -960 -512
WIRE -1728 -496 -1744 -496
WIRE -960 -480 -960 -512
WIRE -1744 -448 -1744 -496
WIRE -1744 -448 -1856 -448
WIRE -1616 -448 -1664 -448
WIRE -1856 -400 -1856 -448
WIRE -1744 -400 -1744 -448
WIRE -1728 -400 -1744 -400
WIRE -960 -400 -960 -416
WIRE -1664 -336 -1664 -352
WIRE -1856 -288 -1856 -320
WIRE -1664 -224 -1664 -240
WIRE -1728 -176 -1744 -176
WIRE -1744 -128 -1744 -176
WIRE -1744 -128 -1856 -128
WIRE -1616 -128 -1664 -128
WIRE -928 -96 -928 -112
WIRE -1744 -80 -1744 -128
WIRE -1728 -80 -1744 -80
WIRE -1856 -64 -1856 -128
WIRE -1664 -16 -1664 -32
WIRE -928 16 -928 -16
WIRE -1856 48 -1856 16
FLAG -928 16 0
FLAG -1856 -544 0
FLAG -928 -112 VDD
FLAG -1856 -688 F1
FLAG -912 -512 Y
FLAG -1856 -288 0
FLAG -1856 -448 B
FLAG -1856 48 0
FLAG -1856 -128 A
FLAG -960 -400 0
FLAG -1664 -400 0
FLAG -1664 -496 VDD
FLAG -1664 -560 VDD
FLAG -1664 -336 0
FLAG -1664 -80 0
FLAG -1664 -176 VDD
FLAG -1664 -240 VDD
FLAG -1664 -16 0
FLAG -1616 -128 !A
FLAG -1616 -448 !B
SYMBOL voltage -1856 -672 R0
WINDOW 123 0 0 Left 2
WINDOW 39 0 0 Left 2
WINDOW 3 46 40 Left 2
SYMATTR Value PULSE(0 3.3 4n 0.1n 0.1n 4n 10n)
SYMATTR InstName V1
SYMBOL voltage -928 -112 R0
WINDOW 123 0 0 Left 2
WINDOW 39 0 0 Left 2
SYMATTR InstName V2
SYMATTR Value 3.3V
SYMBOL voltage -1856 -416 R0
WINDOW 123 0 0 Left 2
WINDOW 39 0 0 Left 2
WINDOW 3 13 121 Left 2
SYMATTR Value PULSE(0 3.3 20n 0.1n 0.1n 20n 40n)
SYMATTR InstName V3
SYMBOL voltage -1856 -80 R0
WINDOW 123 0 0 Left 2
WINDOW 39 0 0 Left 2
WINDOW 3 16 104 Left 2
SYMATTR Value PULSE(0 3.3 10n 0.1n 0.1n 10n 20n)
SYMATTR InstName V4
SYMBOL cap -976 -480 R0
SYMATTR InstName C1
SYMATTR Value 20f
SYMBOL pmos -1712 -544 R0
SYMATTR InstName M8
SYMATTR Value2 l=0.6u w=1.8u
SYMATTR SpiceModel ""
SYMATTR Value PMOS
SYMBOL nmos -1712 -448 R0
SYMATTR InstName M9
SYMATTR SpiceModel ""
SYMATTR Value NMOS
SYMATTR Value2 l=0.6u w=0.9u
SYMBOL pmos -1712 -224 R0
SYMATTR InstName M10
SYMATTR Value2 l=0.6u w=1.8u
SYMATTR SpiceModel ""
SYMATTR Value PMOS
SYMBOL nmos -1712 -128 R0
SYMATTR InstName M12
SYMATTR SpiceModel ""
SYMATTR Value NMOS
SYMATTR Value2 l=0.6u w=0.9u
TEXT -1560 40 Left 2 !.lib cmos.lib
TEXT -1560 24 Left 2 !.tran 40ns
