Version 4
SHEET 1 1292 680
WIRE -1472 -544 -1488 -544
WIRE -1184 -544 -1472 -544
WIRE -1168 -544 -1184 -544
WIRE -1056 -544 -1168 -544
WIRE -1488 -496 -1488 -544
WIRE -1184 -496 -1184 -544
WIRE -1552 -448 -1616 -448
WIRE -1472 -448 -1472 -544
WIRE -1472 -448 -1488 -448
WIRE -1248 -448 -1312 -448
WIRE -1168 -448 -1168 -544
WIRE -1168 -448 -1184 -448
WIRE -1392 -400 -1488 -400
WIRE -1088 -400 -1184 -400
WIRE -1056 -400 -1088 -400
WIRE -1488 -384 -1488 -400
WIRE -1184 -384 -1184 -400
WIRE -1552 -336 -1664 -336
WIRE -1456 -336 -1488 -336
WIRE -1392 -336 -1392 -400
WIRE -1248 -336 -1392 -336
WIRE -1152 -336 -1184 -336
WIRE -1488 -272 -1488 -288
WIRE -1184 -272 -1184 -288
WIRE -1552 -224 -1664 -224
WIRE -1456 -224 -1456 -336
WIRE -1456 -224 -1488 -224
WIRE -1248 -224 -1360 -224
WIRE -1152 -224 -1152 -336
WIRE -1152 -224 -1184 -224
WIRE -1872 -208 -1872 -240
WIRE -1488 -160 -1488 -176
WIRE -1184 -160 -1184 -176
WIRE -1552 -112 -1664 -112
WIRE -1456 -112 -1456 -224
WIRE -1456 -112 -1488 -112
WIRE -1248 -112 -1360 -112
WIRE -1152 -112 -1152 -224
WIRE -1152 -112 -1184 -112
WIRE -1872 -96 -1872 -128
WIRE -1488 -48 -1488 -64
WIRE -1184 -48 -1184 -64
WIRE -1024 -16 -1024 -48
WIRE -1872 0 -1872 -32
WIRE -1616 0 -1616 -448
WIRE -1616 0 -1664 0
WIRE -1552 0 -1616 0
WIRE -1456 0 -1456 -112
WIRE -1456 0 -1488 0
WIRE -1312 0 -1312 -448
WIRE -1312 0 -1360 0
WIRE -1248 0 -1312 0
WIRE -1152 0 -1152 -112
WIRE -1152 0 -1184 0
WIRE -1488 64 -1488 48
WIRE -1456 64 -1456 0
WIRE -1456 64 -1488 64
WIRE -1184 64 -1184 48
WIRE -1152 64 -1152 0
WIRE -1152 64 -1184 64
WIRE -1872 96 -1872 80
WIRE -1488 96 -1488 64
WIRE -1184 96 -1184 64
WIRE -1024 96 -1024 64
FLAG -1184 96 0
FLAG -1360 0 F1
FLAG -1488 96 0
FLAG -1664 0 F1
FLAG -1024 96 0
FLAG -1872 96 0
FLAG -1024 -48 VDD
FLAG -1872 -32 F1
FLAG -1392 -400 T1
FLAG -1088 -400 T2
FLAG -1056 -544 VDD
FLAG -1872 -96 0
FLAG -1872 -240 ONE
FLAG -1664 -336 ONE
FLAG -1664 -224 ONE
FLAG -1664 -112 ONE
FLAG -1360 -224 ONE
FLAG -1360 -112 ONE
SYMBOL pmos -1232 -496 R0
SYMATTR InstName M2
SYMATTR Value2 l=0.6u w=3u
SYMBOL pmos -1536 -496 R0
SYMATTR InstName M11
SYMATTR Value2 l=0.6u w=3u
SYMBOL voltage -1872 -16 R0
WINDOW 123 0 0 Left 0
WINDOW 39 0 0 Left 0
SYMATTR InstName V1
SYMATTR Value PULSE(0 3.3 4n 0.1n 0.1n 4n 10n)
SYMBOL voltage -1024 -32 R0
WINDOW 123 0 0 Left 0
WINDOW 39 0 0 Left 0
SYMATTR InstName V2
SYMATTR Value 3.3V
SYMBOL nmos -1536 -384 R0
SYMATTR InstName M1
SYMATTR SpiceModel ""
SYMATTR Value NMOS
SYMATTR Value2 l=0.6u w=6u
SYMBOL nmos -1536 -272 R0
SYMATTR InstName M3
SYMATTR SpiceModel ""
SYMATTR Value NMOS
SYMATTR Value2 l=0.6u w=6u
SYMBOL nmos -1536 -160 R0
SYMATTR InstName M4
SYMATTR SpiceModel ""
SYMATTR Value NMOS
SYMATTR Value2 l=0.6u w=6u
SYMBOL nmos -1536 -48 R0
SYMATTR InstName M5
SYMATTR SpiceModel ""
SYMATTR Value NMOS
SYMATTR Value2 l=0.6u w=6u
SYMBOL nmos -1232 -384 R0
SYMATTR InstName M7
SYMATTR SpiceModel ""
SYMATTR Value NMOS
SYMATTR Value2 l=0.6u w=6u
SYMBOL nmos -1232 -272 R0
SYMATTR InstName M8
SYMATTR SpiceModel ""
SYMATTR Value NMOS
SYMATTR Value2 l=0.6u w=6u
SYMBOL nmos -1232 -160 R0
SYMATTR InstName M9
SYMATTR SpiceModel ""
SYMATTR Value NMOS
SYMATTR Value2 l=0.6u w=6u
SYMBOL nmos -1232 -48 R0
SYMATTR InstName M10
SYMATTR SpiceModel ""
SYMATTR Value NMOS
SYMATTR Value2 l=0.6u w=6u
SYMBOL voltage -1872 -224 R0
WINDOW 123 0 0 Left 0
WINDOW 39 0 0 Left 0
SYMATTR InstName V3
SYMATTR Value 3.3V
TEXT -1264 -472 Left 0 ;10
TEXT -1568 -472 Left 0 ;10
TEXT -1416 88 Left 0 !.lib mhp_ns5.md
TEXT -1416 64 Left 0 !.tran 20ns
TEXT -1888 -536 Left 0 ;Cascaded PE Logic Gates
TEXT -1560 -352 Left 0 ;20
TEXT -1560 -248 Left 0 ;20
TEXT -1560 -136 Left 0 ;20
TEXT -1560 -16 Left 0 ;20
