Version 4
SHEET 1 1292 680
WIRE -1472 -544 -1488 -544
WIRE -1392 -544 -1472 -544
WIRE -1488 -496 -1488 -544
WIRE -1552 -448 -1616 -448
WIRE -1472 -448 -1472 -544
WIRE -1472 -448 -1488 -448
WIRE -1392 -400 -1488 -400
WIRE -1488 -384 -1488 -400
WIRE -1552 -336 -1664 -336
WIRE -1456 -336 -1488 -336
WIRE -1872 -304 -1872 -336
WIRE -1488 -272 -1488 -288
WIRE -1552 -224 -1664 -224
WIRE -1456 -224 -1456 -336
WIRE -1456 -224 -1488 -224
WIRE -1872 -192 -1872 -224
WIRE -1488 -144 -1488 -176
WIRE -1616 -96 -1616 -448
WIRE -1616 -96 -1664 -96
WIRE -1552 -96 -1616 -96
WIRE -1456 -96 -1456 -224
WIRE -1456 -96 -1488 -96
WIRE -1216 -64 -1216 -96
WIRE -1872 -48 -1872 -80
WIRE -1488 -32 -1488 -48
WIRE -1456 -32 -1456 -96
WIRE -1456 -32 -1488 -32
WIRE -1872 48 -1872 32
WIRE -1488 48 -1488 -32
WIRE -1216 48 -1216 16
FLAG -1488 48 0
FLAG -1664 -96 F1
FLAG -1216 48 0
FLAG -1872 48 0
FLAG -1216 -96 VDD
FLAG -1872 -80 F1
FLAG -1392 -400 T1
FLAG -1392 -544 VDD
FLAG -1872 -192 0
FLAG -1872 -336 ONE
FLAG -1664 -336 ONE
FLAG -1664 -224 ONE
SYMBOL pmos -1536 -496 R0
SYMATTR InstName M11
SYMATTR Value2 l=0.6u w=3u
SYMBOL voltage -1872 -64 R0
WINDOW 123 0 0 Left 0
WINDOW 39 0 0 Left 0
SYMATTR InstName V1
SYMATTR Value PULSE(0 3.3 4n 0.1n 0.1n 4n 10n)
SYMBOL voltage -1216 -80 R0
WINDOW 123 0 0 Left 0
WINDOW 39 0 0 Left 0
SYMATTR InstName V2
SYMATTR Value 3.3V
SYMBOL nmos -1536 -384 R0
SYMATTR InstName M1
SYMATTR SpiceModel ""
SYMATTR Value NMOS
SYMATTR Value2 l=0.6u w=4.5u
SYMBOL voltage -1872 -320 R0
WINDOW 123 0 0 Left 0
WINDOW 39 0 0 Left 0
SYMATTR InstName V3
SYMATTR Value 3.3V
SYMBOL nmos -1536 -272 R0
SYMATTR InstName M2
SYMATTR SpiceModel ""
SYMATTR Value NMOS
SYMATTR Value2 l=0.6u w=4.5u
SYMBOL nmos -1536 -144 R0
SYMATTR InstName M3
SYMATTR SpiceModel ""
SYMATTR Value NMOS
SYMATTR Value2 l=0.6u w=4.5u
TEXT -1568 -472 Left 0 ;10
TEXT -1408 40 Left 0 !.lib mhp_ns5.md
TEXT -1408 8 Left 0 !.tran 20ns
TEXT -1560 -352 Left 0 ;15
TEXT -1560 -248 Left 0 ;15
TEXT -1560 -112 Left 0 ;15
