Version 4
SHEET 1 1292 680
WIRE -1472 -544 -1488 -544
WIRE -1392 -544 -1472 -544
WIRE -1488 -496 -1488 -544
WIRE -1552 -448 -1616 -448
WIRE -1472 -448 -1472 -544
WIRE -1472 -448 -1488 -448
WIRE -1408 -400 -1488 -400
WIRE -1328 -400 -1408 -400
WIRE -1488 -384 -1488 -400
WIRE -1552 -336 -1664 -336
WIRE -1456 -336 -1488 -336
WIRE -1488 -272 -1488 -288
WIRE -1552 -224 -1664 -224
WIRE -1456 -224 -1456 -336
WIRE -1456 -224 -1488 -224
WIRE -1488 -144 -1488 -176
WIRE -1616 -96 -1616 -448
WIRE -1616 -96 -1664 -96
WIRE -1552 -96 -1616 -96
WIRE -1456 -96 -1456 -224
WIRE -1456 -96 -1488 -96
WIRE -1888 -48 -1888 -80
WIRE -1792 -48 -1792 -80
WIRE -1392 -48 -1392 -80
WIRE -1296 -48 -1296 -80
WIRE -1488 -32 -1488 -48
WIRE -1456 -32 -1456 -96
WIRE -1456 -32 -1488 -32
WIRE -1888 48 -1888 32
WIRE -1792 48 -1792 32
WIRE -1488 48 -1488 -32
WIRE -1392 48 -1392 32
WIRE -1296 48 -1296 32
FLAG -1488 48 0
FLAG -1664 -96 F1
FLAG -1392 48 0
FLAG -1296 48 0
FLAG -1392 -80 VDD
FLAG -1296 -80 F1
FLAG -1328 -400 Y
FLAG -1392 -544 VDD
FLAG -1888 48 0
FLAG -1888 -80 B
FLAG -1664 -336 A
FLAG -1664 -224 B
FLAG -1792 48 0
FLAG -1792 -80 A
FLAG -1408 -336 0
SYMBOL pmos -1536 -496 R0
SYMATTR InstName M11
SYMATTR Value2 l=0.6u w=3u
SYMBOL voltage -1296 -64 R0
WINDOW 123 0 0 Left 2
WINDOW 39 0 0 Left 2
SYMATTR InstName V1
SYMATTR Value PULSE(0 3.3 4n 0.1n 0.1n 4n 10n)
SYMBOL voltage -1392 -64 R0
WINDOW 123 0 0 Left 2
WINDOW 39 0 0 Left 2
SYMATTR InstName V2
SYMATTR Value 3.3V
SYMBOL nmos -1536 -384 R0
SYMATTR InstName M1
SYMATTR SpiceModel ""
SYMATTR Value NMOS
SYMATTR Value2 l=0.6u w=4.5u
SYMBOL voltage -1888 -64 R0
WINDOW 123 0 0 Left 2
WINDOW 39 0 0 Left 2
SYMATTR InstName V3
SYMATTR Value 3.3V
SYMBOL nmos -1536 -272 R0
SYMATTR InstName M2
SYMATTR SpiceModel ""
SYMATTR Value NMOS
SYMATTR Value2 l=0.6u w=4.5u
SYMBOL nmos -1536 -144 R0
SYMATTR InstName M3
SYMATTR SpiceModel ""
SYMATTR Value NMOS
SYMATTR Value2 l=0.6u w=4.5u
SYMBOL voltage -1792 -64 R0
WINDOW 123 0 0 Left 2
WINDOW 39 0 0 Left 2
SYMATTR InstName V4
SYMATTR Value PWL(0 3.3 20n 3.3 20.1n 0)
SYMBOL cap -1424 -400 R0
SYMATTR InstName C1
SYMATTR Value 20f
TEXT -1568 -472 Left 2 ;10
TEXT -1376 -480 Left 2 !.lib mhp_ns5.md
TEXT -1376 -512 Left 2 !.tran 40ns
TEXT -1560 -352 Left 2 ;15
TEXT -1560 -248 Left 2 ;15
TEXT -1560 -112 Left 2 ;15
