Version 4
SHEET 1 1292 680
WIRE -1856 -496 -1856 -528
WIRE -1488 -496 -1488 -512
WIRE -1552 -448 -1616 -448
WIRE -1856 -400 -1856 -416
WIRE -1424 -400 -1488 -400
WIRE -1344 -400 -1424 -400
WIRE -1488 -384 -1488 -400
WIRE -1424 -368 -1424 -400
WIRE -1552 -336 -1664 -336
WIRE -1424 -288 -1424 -304
WIRE -1856 -272 -1856 -304
WIRE -1552 -240 -1664 -240
WIRE -1856 -176 -1856 -192
WIRE -1616 -144 -1616 -448
WIRE -1616 -144 -1664 -144
WIRE -1552 -144 -1616 -144
WIRE -1856 -48 -1856 -80
WIRE -1488 -48 -1488 -96
WIRE -1248 -48 -1248 -80
WIRE -1856 48 -1856 32
WIRE -1248 48 -1248 32
FLAG -1488 -48 0
FLAG -1664 -144 F1
FLAG -1248 48 0
FLAG -1856 -400 0
FLAG -1248 -80 VDD
FLAG -1856 -528 F1
FLAG -1344 -400 Y
FLAG -1488 -512 VDD
FLAG -1856 -176 0
FLAG -1856 -304 B
FLAG -1664 -336 A
FLAG -1664 -240 B
FLAG -1856 48 0
FLAG -1856 -80 A
FLAG -1424 -288 0
FLAG -1488 -144 0
FLAG -1488 -240 0
FLAG -1488 -336 0
FLAG -1488 -448 VDD
SYMBOL pmos -1536 -496 R0
SYMATTR InstName M11
SYMATTR Value2 l=0.6u w=3u
SYMBOL voltage -1856 -512 R0
WINDOW 123 0 0 Left 2
WINDOW 39 0 0 Left 2
WINDOW 3 -55 138 Left 2
SYMATTR InstName V1
SYMATTR Value PULSE(0 3.3 4n 0.1n 0.1n 4n 10n)
SYMBOL voltage -1248 -64 R0
WINDOW 123 0 0 Left 2
WINDOW 39 0 0 Left 2
SYMATTR InstName V2
SYMATTR Value 3.3V
SYMBOL nmos -1536 -384 R0
SYMATTR InstName M1
SYMATTR SpiceModel ""
SYMATTR Value NMOS
SYMATTR Value2 l=0.6u w=4.5u
SYMBOL voltage -1856 -288 R0
WINDOW 123 0 0 Left 2
WINDOW 39 0 0 Left 2
SYMATTR InstName V3
SYMATTR Value 3.3V
SYMBOL nmos -1536 -288 R0
SYMATTR InstName M2
SYMATTR SpiceModel ""
SYMATTR Value NMOS
SYMATTR Value2 l=0.6u w=4.5u
SYMBOL nmos -1536 -192 R0
SYMATTR InstName M3
SYMATTR SpiceModel ""
SYMATTR Value NMOS
SYMATTR Value2 l=0.6u w=4.5u
SYMBOL voltage -1856 -64 R0
WINDOW 123 0 0 Left 2
WINDOW 39 0 0 Left 2
SYMATTR InstName V4
SYMATTR Value PWL(0 3.3 20n 3.3 20.1n 0)
SYMBOL cap -1440 -368 R0
SYMATTR InstName C1
SYMATTR Value 20f
TEXT -1568 -472 Left 2 ;10
TEXT -1256 -152 Left 2 !.lib cmos.lib
TEXT -1256 -184 Left 2 !.tran 40ns
TEXT -1560 -352 Left 2 ;15
TEXT -1560 -264 Left 2 ;15
TEXT -1560 -160 Left 2 ;15
