Version 4
SHEET 1 1292 680
WIRE -1120 -160 -1184 -160
WIRE -1040 -160 -1072 -160
WIRE -1120 -144 -1184 -144
WIRE -1280 -96 -1312 -96
WIRE -1616 -80 -1680 -80
WIRE -1536 -80 -1568 -80
WIRE -1392 -80 -1440 -80
WIRE -1152 -80 -1184 -80
WIRE -1088 -80 -1120 -80
WIRE -1280 -64 -1312 -64
WIRE -1152 -48 -1152 -80
WIRE -1088 -48 -1088 -80
WIRE -1792 -32 -1792 -64
WIRE -1680 -32 -1680 -80
WIRE -1152 48 -1152 16
WIRE -1088 48 -1088 16
WIRE -1792 96 -1792 48
WIRE -1680 96 -1680 48
FLAG -1792 96 0
FLAG -1184 -80 F1
FLAG -1440 -80 A
FLAG -1680 96 0
FLAG -1152 48 0
FLAG -1536 -80 A
FLAG -1792 -64 $G_VDD
FLAG -1120 -80 F2
FLAG -1088 48 0
FLAG -1280 -96 F1
FLAG -1280 -64 F2
FLAG -1184 -160 F1
FLAG -1184 -144 F2
FLAG -1040 -160 TEST
SYMBOL voltage -1792 -48 R0
WINDOW 123 0 0 Left 0
WINDOW 39 0 0 Left 0
WINDOW 3 10 108 Left 0
SYMATTR Value 3.3
SYMATTR InstName V1
SYMBOL voltage -1680 -48 R0
WINDOW 123 0 0 Left 0
WINDOW 39 0 0 Left 0
WINDOW 3 6 109 Left 0
SYMATTR Value PULSE(3.3 0 5n 0.5n 0.5n 20n 40n)
SYMATTR InstName V2
SYMBOL cap -1168 -48 R0
SYMATTR InstName C1
SYMATTR Value 500fF
SYMBOL inverter -1600 -80 R0
SYMATTR InstName X1
SYMBOL 2p_clock -1392 -48 R0
SYMATTR InstName X2
SYMBOL cap -1104 -48 R0
SYMATTR InstName C2
SYMATTR Value 500fF
SYMBOL nand2 -1120 -112 R0
SYMATTR InstName X3
TEXT -1552 152 Left 0 !.tran 200n
TEXT -1552 128 Left 0 !.lib mhp_ns5.md
TEXT -1416 -184 Left 0 ;Circuit Under Test
TEXT -1648 -184 Left 0 ;Signal Driver
