Version 4
SHEET 1 880 680
WIRE 0 80 -64 80
WIRE 80 80 0 80
WIRE 208 80 128 80
WIRE 272 80 256 80
WIRE 336 80 320 80
WIRE 352 80 336 80
WIRE 448 80 400 80
WIRE 80 96 48 96
WIRE 0 112 0 80
WIRE 336 128 336 80
WIRE 336 128 64 128
WIRE 48 144 48 96
WIRE 336 144 48 144
WIRE 64 176 64 128
WIRE 80 176 64 176
WIRE 208 176 128 176
WIRE 272 176 256 176
WIRE 336 176 336 144
WIRE 336 176 320 176
WIRE 352 176 336 176
WIRE 448 176 400 176
WIRE 0 192 0 160
WIRE 80 192 0 192
FLAG -64 80 CLK
IOPIN -64 80 In
FLAG 448 80 F1
IOPIN 448 80 Out
FLAG 448 176 F2
IOPIN 448 176 Out
SYMBOL nand2 80 128 R0
SYMATTR InstName X1
SYMBOL nand2 80 224 R0
SYMATTR InstName X2
SYMBOL inverter 224 80 R0
SYMATTR InstName X3
SYMBOL inverter 288 80 R0
SYMATTR InstName X4
SYMBOL inverter 224 176 R0
SYMATTR InstName X6
SYMBOL inverter 288 176 R0
SYMATTR InstName X7
SYMBOL inverter 0 128 R90
SYMATTR InstName X9
SYMBOL inverter_x2 368 80 R0
SYMATTR InstName X5
SYMBOL inverter_x2 368 176 R0
SYMATTR InstName X8
