Version 4
SHEET 1 1292 680
WIRE -1552 -704 -1648 -704
WIRE -1712 -656 -1760 -656
WIRE -1648 -656 -1648 -704
WIRE -1648 -656 -1664 -656
WIRE -1632 -656 -1648 -656
WIRE -1552 -656 -1584 -656
WIRE -1216 -608 -1216 -656
WIRE -1760 -592 -1760 -656
WIRE -720 -592 -720 -624
WIRE -1264 -544 -1360 -544
WIRE -1088 -544 -1168 -544
WIRE -1216 -512 -1216 -544
WIRE -1760 -496 -1760 -512
WIRE -720 -480 -720 -512
WIRE -1056 -464 -1056 -480
WIRE -1648 -416 -1760 -416
WIRE -1568 -416 -1600 -416
WIRE -1360 -416 -1360 -544
WIRE -1360 -416 -1568 -416
WIRE -1088 -416 -1088 -544
WIRE -960 -416 -1088 -416
WIRE -912 -416 -960 -416
WIRE -1760 -352 -1760 -416
WIRE -1360 -288 -1360 -416
WIRE -1264 -288 -1360 -288
WIRE -1216 -288 -1216 -320
WIRE -1088 -288 -1088 -416
WIRE -1088 -288 -1168 -288
WIRE -1056 -288 -1056 -304
WIRE -1760 -256 -1760 -272
WIRE -1216 -192 -1216 -224
FLAG -720 -480 0
FLAG -1760 -256 0
FLAG -1760 -496 0
FLAG -1552 -656 S
FLAG -720 -624 $G_VDD
FLAG -1568 -416 A
FLAG -1552 -704 !S
FLAG -1216 -320 0
FLAG -1216 -192 S
FLAG -1216 -656 !S
FLAG -1216 -512 $G_VDD
FLAG -960 -416 Y
SYMBOL voltage -1760 -368 R0
WINDOW 123 0 0 Left 0
WINDOW 39 0 0 Left 0
WINDOW 3 20 97 Left 0
WINDOW 0 18 8 Left 0
SYMATTR Value PWL(0 0 100m 0 100.1m 3.3)
SYMATTR InstName V2
SYMBOL voltage -720 -608 R0
WINDOW 123 0 0 Left 0
WINDOW 39 0 0 Left 0
WINDOW 3 -14 51 Left 0
SYMATTR Value 3.3V
SYMATTR InstName VDD
SYMBOL voltage -1760 -608 R0
WINDOW 123 0 0 Left 0
WINDOW 39 0 0 Left 0
WINDOW 3 23 99 Left 0
WINDOW 0 21 9 Left 0
SYMATTR Value PULSE(0 3.3 5n 1n 1n 5m 21m)
SYMATTR InstName V1
SYMBOL inverter -1696 -656 R0
SYMATTR InstName X1
SYMBOL inverter -1616 -656 R0
SYMATTR InstName X2
SYMBOL inverter -1632 -416 R0
SYMATTR InstName X9
SYMBOL nmos -1264 -240 R270
SYMATTR InstName M1
SYMATTR SpiceModel ""
SYMATTR Value NMOS
SYMATTR Value2 l=0.6u w=1.5u
SYMBOL pmos -1168 -592 R90
SYMATTR InstName M2
SYMATTR SpiceModel ""
SYMATTR Value PMOS
SYMATTR Value2 l=0.6u w=3u
SYMBOL inverter -896 -416 R0
SYMATTR InstName X3
TEXT -1752 -152 Left 0 !.tran 200m
TEXT -1752 -184 Left 0 !.lib mhp_ns5.md
TEXT -1376 -752 Left 0 ;Charge leakage circuit
TEXT -1016 -320 Left 0 ;Ln
TEXT -1024 -336 Left 0 ;I
TEXT -1016 -496 Left 0 ;Lp
TEXT -1024 -512 Left 0 ;I
LINE Normal -1056 -288 -1056 -368
LINE Normal -1040 -304 -1056 -288
LINE Normal -1072 -304 -1056 -288
LINE Normal -1056 -464 -1056 -544
LINE Normal -1040 -480 -1056 -464
LINE Normal -1072 -480 -1056 -464
