Version 4
SHEET 1 1292 680
WIRE -1232 -208 -1248 -208
WIRE -1008 -208 -1024 -208
WIRE -1504 -112 -1520 -112
WIRE -1440 -112 -1456 -112
WIRE -1360 -112 -1360 -208
WIRE -1360 -112 -1376 -112
WIRE -1312 -112 -1360 -112
WIRE -1232 -112 -1232 -208
WIRE -1232 -112 -1264 -112
WIRE -1216 -112 -1232 -112
WIRE -1136 -112 -1136 -208
WIRE -1136 -112 -1152 -112
WIRE -1088 -112 -1136 -112
WIRE -1008 -112 -1008 -208
WIRE -1008 -112 -1040 -112
WIRE -992 -112 -1008 -112
WIRE -928 -112 -944 -112
WIRE -1504 0 -1520 0
WIRE -1424 0 -1456 0
WIRE -1408 0 -1424 0
WIRE -1344 0 -1360 0
FLAG -1328 -240 c
FLAG -1408 -80 c
FLAG -1408 -144 !c
FLAG -1520 0 clk
IOPIN -1520 0 In
FLAG -1520 -112 D
IOPIN -1520 -112 In
FLAG -1424 0 !c
FLAG -1344 0 c
FLAG -1328 -176 !c
FLAG -1104 -240 !c
FLAG -1184 -80 !c
FLAG -1184 -144 c
FLAG -1104 -176 c
FLAG -928 -112 q
IOPIN -928 -112 Out
SYMBOL inverter -1296 -112 R0
SYMATTR InstName X3
SYMBOL tg -1312 -224 R180
SYMATTR InstName X4
SYMBOL inverter -1264 -208 R180
SYMATTR InstName X5
SYMBOL inverter -1488 -112 R0
SYMATTR InstName X6
SYMBOL tg -1392 -128 R180
SYMATTR InstName X7
SYMBOL inverter -1488 0 R0
SYMATTR InstName X1
SYMBOL inverter -1392 0 R0
SYMATTR InstName X2
SYMBOL inverter -1072 -112 R0
SYMATTR InstName X8
SYMBOL tg -1088 -224 R180
SYMATTR InstName X9
SYMBOL inverter -1040 -208 R180
SYMATTR InstName X10
SYMBOL tg -1168 -128 R180
SYMATTR InstName X12
SYMBOL inverter -976 -112 R0
SYMATTR InstName X11
