Version 4
SHEET 1 1292 680
WIRE -1536 -288 -1568 -288
WIRE -1440 -288 -1472 -288
WIRE -1360 -288 -1392 -288
WIRE -1168 -288 -1200 -288
WIRE -1072 -288 -1104 -288
WIRE -992 -288 -1024 -288
WIRE -1744 -112 -1808 -112
WIRE -1680 -112 -1696 -112
WIRE -1568 -112 -1568 -288
WIRE -1568 -112 -1616 -112
WIRE -1472 -112 -1568 -112
WIRE -1360 -112 -1360 -288
WIRE -1360 -112 -1424 -112
WIRE -1312 -112 -1360 -112
WIRE -1200 -112 -1200 -288
WIRE -1200 -112 -1248 -112
WIRE -1104 -112 -1200 -112
WIRE -992 -112 -992 -288
WIRE -992 -112 -1056 -112
WIRE -944 -112 -992 -112
WIRE -848 -112 -896 -112
WIRE -1744 32 -1792 32
WIRE -1680 32 -1696 32
WIRE -1584 32 -1680 32
WIRE -1680 96 -1680 32
WIRE -1664 96 -1680 96
WIRE -1584 96 -1616 96
FLAG -1504 -320 cb
FLAG -1648 -80 cb
FLAG -1648 -144 c
FLAG -1792 32 clk
IOPIN -1792 32 In
FLAG -1808 -112 D
IOPIN -1808 -112 In
FLAG -1584 32 cb
FLAG -1584 96 c
FLAG -1504 -256 c
FLAG -1136 -320 c
FLAG -1280 -80 c
FLAG -1280 -144 cb
FLAG -1136 -256 cb
FLAG -848 -112 q
IOPIN -848 -112 Out
SYMBOL inverter -1456 -112 R0
SYMATTR InstName X3
SYMBOL tg -1488 -304 R180
SYMATTR InstName X4
SYMBOL inverter -1408 -288 R180
SYMATTR InstName X5
SYMBOL inverter -1728 -112 R0
SYMATTR InstName X6
SYMBOL tg -1632 -128 R180
SYMATTR InstName X7
SYMBOL inverter -1728 32 R0
SYMATTR InstName X1
SYMBOL inverter -1648 96 R0
SYMATTR InstName X2
SYMBOL inverter -1088 -112 R0
SYMATTR InstName X8
SYMBOL tg -1120 -304 R180
SYMATTR InstName X9
SYMBOL inverter -1040 -288 R180
SYMATTR InstName X10
SYMBOL tg -1264 -128 R180
SYMATTR InstName X12
SYMBOL inverter -928 -112 R0
SYMATTR InstName X11
TEXT -1528 -424 Left 0 ;Master-slave, positive edge-trigered flip-flop
