Version 4
SHEET 1 1292 680
WIRE -1728 -368 -1760 -368
WIRE -1472 -368 -1504 -368
WIRE -1312 -368 -1376 -368
WIRE -1296 -368 -1312 -368
WIRE -1296 -352 -1296 -368
WIRE -1760 -336 -1760 -368
WIRE -1472 -304 -1504 -304
WIRE -1296 -272 -1296 -288
WIRE -1152 -272 -1152 -288
WIRE -1760 -240 -1760 -256
WIRE -1728 -160 -1760 -160
WIRE -1152 -160 -1152 -192
WIRE -1760 -128 -1760 -160
WIRE -1760 -32 -1760 -48
FLAG -1296 -272 0
FLAG -1152 -288 $G_VDD
FLAG -1152 -160 0
FLAG -1760 -240 0
FLAG -1760 -32 0
FLAG -1504 -368 D
FLAG -1504 -304 CLK
FLAG -1312 -368 Q
FLAG -1728 -368 D
FLAG -1728 -160 CLK
SYMBOL cap -1312 -352 R0
WINDOW 3 28 48 Left 2
SYMATTR Value 10f
SYMATTR InstName C1
SYMBOL voltage -1760 -352 R0
WINDOW 123 0 0 Left 2
WINDOW 39 0 0 Left 2
WINDOW 3 20 97 Left 2
WINDOW 0 4 12 Left 2
SYMATTR Value PWL(0 0 {t1} 0 {t2} 3.3 )
SYMATTR InstName VD
SYMBOL voltage -1152 -288 R0
WINDOW 123 0 0 Left 2
WINDOW 39 0 0 Left 2
WINDOW 3 -12 57 Left 2
SYMATTR Value 3.3V
SYMATTR InstName VDD
SYMBOL voltage -1760 -144 R0
WINDOW 123 0 0 Left 2
WINDOW 39 0 0 Left 2
WINDOW 3 23 99 Left 2
WINDOW 0 6 13 Left 2
SYMATTR Value PULSE(0 3.3 0 0.01n 0.01n 10n 30n)
SYMATTR InstName VCLK
SYMBOL dff -1408 -336 R0
SYMATTR InstName X3
TEXT -1488 -80 Left 2 !.tran 100n
TEXT -1488 -96 Left 2 !.lib cmos.lib
TEXT -1392 -96 Left 2 !.step param t1 29.91n 30n 0.01n
TEXT -1384 -64 Left 2 !.param t2=t1+0.01n
