Version 4
SHEET 1 1292 680
WIRE -1632 -368 -1760 -368
WIRE -1328 -368 -1584 -368
WIRE -1184 -368 -1328 -368
WIRE -1024 -368 -1088 -368
WIRE -1008 -368 -1024 -368
WIRE -1760 -336 -1760 -368
WIRE -1008 -320 -1008 -368
WIRE -1328 -304 -1344 -304
WIRE -1184 -304 -1328 -304
WIRE -864 -272 -864 -288
WIRE -1760 -240 -1760 -256
WIRE -1632 -160 -1760 -160
WIRE -1344 -160 -1344 -304
WIRE -1344 -160 -1584 -160
WIRE -1008 -160 -1008 -256
WIRE -864 -160 -864 -192
WIRE -1760 -128 -1760 -160
WIRE -1760 -32 -1760 -48
FLAG -1008 -160 0
FLAG -864 -288 $G_VDD
FLAG -864 -160 0
FLAG -1760 -240 0
FLAG -1760 -32 0
FLAG -1328 -368 D
FLAG -1328 -304 CLK
FLAG -1024 -368 Q
SYMBOL cap -1024 -320 R0
WINDOW 3 28 48 Left 2
SYMATTR Value 100f
SYMATTR InstName C1
SYMBOL voltage -1760 -352 R0
WINDOW 123 0 0 Left 2
WINDOW 39 0 0 Left 2
WINDOW 3 20 97 Left 2
WINDOW 0 4 12 Left 2
SYMATTR Value PWL(0 3.3 47m 3.3 47.01m 0)
SYMATTR InstName VD
SYMBOL voltage -864 -288 R0
WINDOW 123 0 0 Left 2
WINDOW 39 0 0 Left 2
WINDOW 3 -12 57 Left 2
SYMATTR Value 3.3V
SYMATTR InstName VDD
SYMBOL voltage -1760 -144 R0
WINDOW 123 0 0 Left 2
WINDOW 39 0 0 Left 2
WINDOW 3 23 99 Left 2
WINDOW 0 6 13 Left 2
SYMATTR Value PULSE(0 3.3 5m 1u 1u 5m 10m)
SYMATTR InstName VCLK
SYMBOL dff -1120 -336 R0
SYMATTR InstName X3
SYMBOL buffer -1616 -368 R0
SYMATTR InstName X1
SYMBOL buffer -1616 -160 R0
SYMATTR InstName X2
TEXT -1248 -48 Left 2 !.tran 100m
TEXT -1248 -80 Left 2 !.lib mhp_ns5.md
TEXT -1152 -416 Left 2 ;DFF
