Version 4
SHEET 1 1292 680
WIRE -1584 -400 -1664 -400
WIRE -1504 -400 -1536 -400
WIRE -1296 -400 -1456 -400
WIRE -1184 -400 -1296 -400
WIRE -1008 -400 -1088 -400
WIRE -976 -400 -1008 -400
WIRE -1664 -352 -1664 -400
WIRE -1184 -336 -1296 -336
WIRE -976 -304 -976 -400
WIRE -800 -288 -800 -304
WIRE -1664 -256 -1664 -272
WIRE -1616 -208 -1664 -208
WIRE -1520 -208 -1568 -208
WIRE -1296 -208 -1296 -336
WIRE -1296 -208 -1472 -208
WIRE -800 -176 -800 -208
WIRE -976 -160 -976 -240
WIRE -1664 -144 -1664 -208
WIRE -1664 -48 -1664 -64
FLAG -976 -160 0
FLAG -800 -304 $G_VDD
FLAG -800 -176 0
FLAG -1664 -256 0
FLAG -1664 -48 0
FLAG -1296 -400 D
FLAG -1296 -336 ENA
FLAG -1008 -400 Q
SYMBOL cap -992 -304 R0
WINDOW 3 28 48 Left 0
SYMATTR Value 100f
SYMATTR InstName C1
SYMBOL voltage -1664 -368 R0
WINDOW 123 0 0 Left 0
WINDOW 39 0 0 Left 0
WINDOW 3 20 97 Left 0
WINDOW 0 4 12 Left 0
SYMATTR Value PWL(0 3.3 47m 3.3 47.01m 0)
SYMATTR InstName VD
SYMBOL voltage -800 -304 R0
WINDOW 123 0 0 Left 0
WINDOW 39 0 0 Left 0
WINDOW 3 -12 57 Left 0
SYMATTR Value 3.3V
SYMATTR InstName VDD
SYMBOL voltage -1664 -160 R0
WINDOW 123 0 0 Left 0
WINDOW 39 0 0 Left 0
WINDOW 3 23 99 Left 0
WINDOW 0 6 13 Left 0
SYMATTR Value PULSE(0 3.3 5m 1u 1u 5m 30m)
SYMATTR InstName VCLK
SYMBOL inverter -1600 -208 R0
SYMATTR InstName X1
SYMBOL inverter -1504 -208 R0
SYMATTR InstName X2
SYMBOL inverter -1488 -400 R0
SYMATTR InstName X8
SYMBOL inverter -1568 -400 R0
SYMATTR InstName X9
SYMBOL dyn_latch -1120 -368 R0
SYMATTR InstName X3
TEXT -1208 -80 Left 0 !.tran 100m
TEXT -1208 -112 Left 0 !.lib mhp_ns5.md
TEXT -1328 -496 Left 0 ;Latch Test-Bench
TEXT -1184 -280 Left 0 ;dyn_latch
