Version 4
SHEET 1 1292 680
WIRE -1744 -112 -1808 -112
WIRE -1632 -112 -1696 -112
WIRE -1472 -112 -1568 -112
WIRE -1344 -112 -1424 -112
WIRE -1728 0 -1776 0
WIRE -1664 0 -1680 0
WIRE -1568 0 -1664 0
WIRE -1664 64 -1664 0
WIRE -1648 64 -1664 64
WIRE -1568 64 -1600 64
FLAG -1600 -80 cb
FLAG -1600 -144 c
FLAG -1776 0 ena
IOPIN -1776 0 In
FLAG -1808 -112 D
IOPIN -1808 -112 In
FLAG -1568 0 cb
FLAG -1568 64 c
FLAG -1344 -112 q
IOPIN -1344 -112 Out
SYMBOL inverter -1456 -112 R0
SYMATTR InstName X3
SYMBOL inverter -1728 -112 R0
SYMATTR InstName X6
SYMBOL tg -1584 -128 R180
SYMATTR InstName X7
SYMBOL inverter -1712 0 R0
SYMATTR InstName X1
SYMBOL inverter -1632 64 R0
SYMATTR InstName X2
TEXT -1648 -216 Left 0 ;Dynamic Latch
