Version 4
SHEET 1 1292 836
WIRE -592 -80 -624 -80
WIRE -560 -80 -592 -80
WIRE -624 -48 -624 -80
WIRE -688 0 -704 0
WIRE -592 0 -592 -80
WIRE -592 0 -624 0
WIRE -704 64 -704 0
WIRE -704 64 -768 64
WIRE -624 64 -624 48
WIRE -560 64 -624 64
WIRE -624 80 -624 64
WIRE -704 128 -704 64
WIRE -688 128 -704 128
WIRE -592 128 -624 128
WIRE -624 224 -624 176
WIRE -592 224 -592 128
FLAG -624 224 0
FLAG -768 64 in
IOPIN -768 64 In
FLAG -560 64 out
IOPIN -560 64 Out
FLAG -560 -80 $G_VDD
FLAG -592 224 0
SYMBOL nmos -672 80 R0
SYMATTR InstName M1
SYMATTR Value2 l=0.6u w=0.9u
SYMBOL pmos -672 -48 R0
SYMATTR InstName M2
SYMATTR Value2 l=0.6u w=0.9u
TEXT -728 -24 Left 0 ;W=0.9u
TEXT -736 144 Left 0 ;W=0.9u
