Version 4
SHEET 1 1292 680
WIRE -1536 -240 -1568 -240
WIRE -1440 -240 -1472 -240
WIRE -1360 -240 -1392 -240
WIRE -1744 -112 -1808 -112
WIRE -1680 -112 -1696 -112
WIRE -1568 -112 -1568 -240
WIRE -1568 -112 -1616 -112
WIRE -1472 -112 -1568 -112
WIRE -1360 -112 -1360 -240
WIRE -1360 -112 -1424 -112
WIRE -1264 -112 -1360 -112
WIRE -1744 32 -1792 32
WIRE -1680 32 -1696 32
WIRE -1584 32 -1680 32
WIRE -1680 96 -1680 32
WIRE -1664 96 -1680 96
WIRE -1584 96 -1616 96
FLAG -1504 -272 cb
FLAG -1648 -80 cb
FLAG -1648 -144 c
FLAG -1792 32 ena
IOPIN -1792 32 In
FLAG -1808 -112 D
IOPIN -1808 -112 In
FLAG -1584 32 cb
FLAG -1584 96 c
FLAG -1504 -208 c
FLAG -1264 -112 q
IOPIN -1264 -112 Out
SYMBOL inverter -1456 -112 R0
SYMATTR InstName X3
SYMBOL tg -1488 -256 R180
SYMATTR InstName X4
SYMBOL inverter -1408 -240 R180
SYMATTR InstName X5
SYMBOL inverter -1728 -112 R0
SYMATTR InstName X6
SYMBOL tg -1632 -128 R180
SYMATTR InstName X7
SYMBOL inverter -1728 32 R0
SYMATTR InstName X1
SYMBOL inverter -1648 96 R0
SYMATTR InstName X2
TEXT -1800 -264 Left 0 ;Static Latch
