Version 4
SHEET 1 1292 680
WIRE -1232 -400 -1456 -400
WIRE -1184 -400 -1232 -400
WIRE -1008 -400 -1088 -400
WIRE -976 -400 -1008 -400
WIRE -1456 -384 -1456 -400
WIRE -1232 -336 -1280 -336
WIRE -1184 -336 -1232 -336
WIRE -976 -304 -976 -400
WIRE -1456 -288 -1456 -304
WIRE -864 -272 -864 -288
WIRE -1280 -256 -1280 -336
WIRE -1280 -256 -1456 -256
WIRE -1456 -224 -1456 -256
WIRE -976 -160 -976 -240
WIRE -864 -160 -864 -192
WIRE -1456 -128 -1456 -144
FLAG -976 -160 0
FLAG -864 -288 $G_VDD
FLAG -864 -160 0
FLAG -1456 -288 0
FLAG -1456 -128 0
FLAG -1232 -400 D
FLAG -1232 -336 CLK
FLAG -1008 -400 Q
SYMBOL cap -992 -304 R0
WINDOW 3 28 48 Left 0
SYMATTR Value 100f
SYMATTR InstName C1
SYMBOL voltage -1456 -400 R0
WINDOW 123 0 0 Left 0
WINDOW 39 0 0 Left 0
WINDOW 3 20 97 Left 0
WINDOW 0 4 12 Left 0
SYMATTR Value PWL(0 0 2n 0 4n 3.3)
SYMATTR InstName VD
SYMBOL voltage -864 -288 R0
WINDOW 123 0 0 Left 0
WINDOW 39 0 0 Left 0
WINDOW 3 -12 57 Left 0
SYMATTR Value 3.3V
SYMATTR InstName VDD
SYMBOL voltage -1456 -240 R0
WINDOW 123 0 0 Left 0
WINDOW 39 0 0 Left 0
WINDOW 3 61 36 Left 0
WINDOW 0 6 13 Left 0
SYMATTR Value PULSE(3.3 0 {delay} 0.1n 0.1n 5n)
SYMATTR InstName VCLK
SYMBOL latch -1120 -368 R0
SYMATTR InstName X3
TEXT -936 -392 Left 0 !.tran 8n
TEXT -936 -416 Left 0 !.lib mhp_ns5.md
TEXT -1400 -168 Left 0 !.step param  delay list 3.4n  3.5n 3.6n
