Version 4
SHEET 1 1292 680
WIRE -1792 -176 -1840 -176
WIRE -1632 -176 -1744 -176
WIRE -1296 -112 -1328 -112
WIRE -1632 -96 -1664 -96
WIRE -1424 -96 -1456 -96
WIRE -1744 -80 -1760 -80
WIRE -1296 -80 -1328 -80
WIRE -1632 -64 -1664 -64
WIRE -1424 -64 -1456 -64
WIRE -1296 -48 -1328 -48
WIRE -1920 -32 -1920 -64
WIRE -1840 -32 -1840 -176
WIRE -1760 -32 -1760 -80
WIRE -1424 -32 -1456 -32
WIRE -1296 -16 -1328 -16
WIRE -1184 0 -1184 -32
WIRE -1120 0 -1120 -32
WIRE -1056 0 -1056 -32
WIRE -992 0 -992 -32
WIRE -1920 96 -1920 48
WIRE -1840 96 -1840 48
WIRE -1760 96 -1760 48
WIRE -1184 96 -1184 64
WIRE -1120 96 -1120 64
WIRE -1056 96 -1056 64
WIRE -992 96 -992 64
FLAG -1920 96 0
FLAG -1184 -32 Q1
FLAG -1760 96 0
FLAG -1184 96 0
FLAG -1920 -64 $G_VDD
FLAG -1120 -32 Q2
FLAG -1120 96 0
FLAG -1632 -96 F1
FLAG -1632 -64 F2
FLAG -1056 -32 Q3
FLAG -1056 96 0
FLAG -992 -32 Q4
FLAG -992 96 0
FLAG -1296 -112 Q1
FLAG -1296 -80 Q2
FLAG -1296 -48 Q3
FLAG -1296 -16 Q4
FLAG -1456 -96 F1
FLAG -1456 -64 F2
FLAG -1456 -32 DIN
FLAG -1840 96 0
FLAG -1632 -176 DIN
SYMBOL voltage -1920 -48 R0
WINDOW 123 0 0 Left 0
WINDOW 39 0 0 Left 0
WINDOW 3 10 108 Left 0
SYMATTR Value 3.3
SYMATTR InstName V1
SYMBOL voltage -1760 -48 R0
WINDOW 123 0 0 Left 0
WINDOW 39 0 0 Left 0
WINDOW 3 8 100 Left 0
SYMATTR Value PULSE(3.3 0 20n 0.5n 0.5n 20n 40n)
SYMATTR InstName V2
SYMBOL cap -1200 0 R0
SYMATTR InstName C1
SYMATTR Value 50fF
SYMBOL 2p_clock -1744 -48 R0
SYMATTR InstName X2
SYMBOL cap -1136 0 R0
SYMATTR InstName C2
SYMATTR Value 50fF
SYMBOL shift_reg -1376 -64 R0
SYMATTR InstName X1
SYMBOL cap -1072 0 R0
SYMATTR InstName C3
SYMATTR Value 50fF
SYMBOL cap -1008 0 R0
SYMATTR InstName C4
SYMATTR Value 50fF
SYMBOL voltage -1840 -48 R0
WINDOW 123 0 0 Left 0
WINDOW 39 0 0 Left 0
WINDOW 3 6 122 Left 0
SYMATTR Value PWL(0 3.3 100n 3.3 101n 0)
SYMATTR InstName V3
SYMBOL inverter -1776 -176 R0
SYMATTR InstName X4
TEXT -1088 -136 Left 0 !.tran 200n
TEXT -1088 -160 Left 0 !.lib mhp_ns5.md
TEXT -1416 -184 Left 0 ;Circuit Under Test
